
  EPA STORM WATER MANAGEMENT MODEL - VERSION 5.2 (Build 5.2.4)
  PYSWMM TOOLKIT API - VERSION v1.0 (2023-11-27)
  ------------------------------------------------------------

  WARNING 04: minimum elevation drop used for Conduit WS02004404WS02004405
  WARNING 03: negative offset ignored for Link YS02001904YS02001907
  
  ****************
  Analysis Options
  ****************
  Flow Units ............... LPS
  Process Models:
    Rainfall/Runoff ........ YES
    RDII ................... NO
    Snowmelt ............... NO
    Groundwater ............ NO
    Flow Routing ........... YES
    Ponding Allowed ........ NO
    Water Quality .......... NO
  Infiltration Method ...... HORTON
  Flow Routing Method ...... DYNWAVE
  Surcharge Method ......... EXTRAN
  Starting Date ............ 08/28/2015 08:00:00
  Ending Date .............. 08/28/2015 16:00:00
  Antecedent Dry Days ...... 8.0
  Report Time Step ......... 00:01:00
  Wet Time Step ............ 00:01:00
  Dry Time Step ............ 00:01:00
  Routing Time Step ........ 30.00 sec
  Variable Time Step ....... YES
  Maximum Trials ........... 8
  Number of Threads ........ 4
  Head Tolerance ........... 0.001500 m
  
  
  **************************        Volume         Depth
  Runoff Quantity Continuity     hectare-m            mm
  **************************     ---------       -------
  Total Precipitation ......         2.618        78.936
  Evaporation Loss .........         0.000         0.000
  Infiltration Loss ........         0.102         3.068
  Surface Runoff ...........         2.484        74.890
  Final Storage ............         0.033         0.995
  Continuity Error (%) .....        -0.022
  
  
  **************************        Volume        Volume
  Flow Routing Continuity        hectare-m      10^6 ltr
  **************************     ---------     ---------
  Dry Weather Inflow .......         0.025         0.251
  Wet Weather Inflow .......         2.484        24.841
  Groundwater Inflow .......         0.000         0.000
  RDII Inflow ..............         0.000         0.000
  External Inflow ..........         0.083         0.834
  External Outflow .........         1.730        17.305
  Flooding Loss ............         0.912         9.116
  Evaporation Loss .........         0.000         0.000
  Exfiltration Loss ........         0.000         0.000
  Initial Stored Volume ....         0.243         2.431
  Final Stored Volume ......         0.200         1.998
  Continuity Error (%) .....        -0.219
  
  
  *************************
  Highest Continuity Errors
  *************************
  Node YS02001583 (-5.51%)
  Node YS02001884 (4.66%)
  
  
  ***************************
  Time-Step Critical Elements
  ***************************
  Link WS02006252WS02006251 (39.65%)
  Link WS02004404WS02004405 (14.13%)
  Link WS02006238WS02006235 (13.53%)
  Link YS02001791YS02001793 (8.73%)
  Link WS02006235WS02006234 (8.72%)
  
  
  ********************************
  Highest Flow Instability Indexes
  ********************************
  Link WS02006113WS02006111 (51)
  Link WS02006111WS02006112 (27)
  Link WS02006238WS02006235 (15)
  Link WS02006252WS02006251 (15)
  Link YS02001607YS02001610 (13)
  
  
  *********************************
  Most Frequent Nonconverging Nodes
  *********************************
  Node CC-1 (11.21%)
  Node CC-2 (11.21%)
  Node JK-1 (11.21%)
  Node JK-2 (11.21%)
  Node WSC (11.21%)
  
  
  *************************
  Routing Time Step Summary
  *************************
  Minimum Time Step           :     0.02 sec
  Average Time Step           :     2.03 sec
  Maximum Time Step           :     7.04 sec
  % of Time in Steady State   :     0.00
  Average Iterations per Step :     3.08
  % of Steps Not Converging   :    11.21
  Time Step Frequencies       :
     30.000 - 13.228 sec      :     0.00 %
     13.228 -  5.833 sec      :     9.20 %
      5.833 -  2.572 sec      :    18.12 %
      2.572 -  1.134 sec      :    26.52 %
      1.134 -  0.500 sec      :    46.16 %
  
  
  ***************************
  Subcatchment Runoff Summary
  ***************************
  
  ------------------------------------------------------------------------------------------------------------------------------
                            Total      Total      Total      Total     Imperv       Perv      Total       Total     Peak  Runoff
                           Precip      Runon       Evap      Infil     Runoff     Runoff     Runoff      Runoff   Runoff   Coeff
  Subcatchment                 mm         mm         mm         mm         mm         mm         mm    10^6 ltr      LPS
  ------------------------------------------------------------------------------------------------------------------------------
  sub60                     78.94       0.00       0.00       1.85      68.26       7.62      75.89        1.00   636.29   0.961
  sub61                     78.94       0.00       0.00       2.69      64.39      10.74      75.13        1.38   882.47   0.952
  sub62                     78.94       0.00       0.00       1.24      71.34       5.08      76.42        2.09  1237.12   0.968
  sub63                     78.94       0.00       0.00       4.94      55.08      17.96      73.04        1.66   983.88   0.925
  sub64                     78.94       0.00       0.00       2.50      65.89       9.35      75.24        1.81  1011.46   0.953
  sub65                     78.94       0.00       0.00       2.16      67.42       8.10      75.53        2.08  1129.31   0.957
  sub66                     78.94       0.00       0.00       6.07      54.97      16.82      71.79        3.35  1478.92   0.909
  sub67                     78.94       0.00       0.00       1.19      71.38       5.13      76.51        1.42   953.79   0.969
  sub68                     78.94       0.00       0.00       2.22      66.70       8.83      75.53        2.08  1268.46   0.957
  sub69                     78.94       0.00       0.00       1.99      66.99       9.86      76.84        2.84  1502.91   0.973
  sub70                     78.94       0.00       0.00       6.57      51.93      20.27      72.21        2.09   832.63   0.915
  sub71                     78.94       0.00       0.00       1.27      71.30       5.05      76.35        2.00  1094.05   0.967
  sub72                     78.94       0.00       0.00       1.13      72.01       4.40      76.41        1.05   529.80   0.968
  
  
  ******************
  Node Depth Summary
  ******************
  
  ---------------------------------------------------------------------------------
                                 Average  Maximum  Maximum  Time of Max    Reported
                                   Depth    Depth      HGL   Occurrence   Max Depth
  Node                 Type       Meters   Meters   Meters  days hr:min      Meters
  ---------------------------------------------------------------------------------
  WS02003060           JUNCTION     0.26     0.38     5.32     0  02:56        0.38
  WS02003066           JUNCTION     0.21     0.30     5.85     0  02:55        0.30
  WS02003067           JUNCTION     0.53     0.70     6.02     0  02:55        0.70
  WS02003069           JUNCTION     0.29     0.43     5.01     0  02:57        0.43
  WS02003072           JUNCTION     0.35     0.50     4.87     0  02:57        0.50
  WS02003073           JUNCTION     0.20     0.30     4.36     0  02:58        0.30
  WS02004401           JUNCTION     0.62     0.85     6.85     0  02:53        0.85
  WS02004402           JUNCTION     0.66     0.88     6.84     0  02:53        0.88
  WS02004403           JUNCTION     0.68     0.89     6.82     0  02:53        0.89
  WS02004404           JUNCTION     0.75     0.96     6.81     0  02:53        0.96
  WS02004405           JUNCTION     0.75     0.96     6.81     0  02:53        0.96
  WS02004406           JUNCTION     0.76     0.96     6.79     0  02:53        0.96
  WS02004407           JUNCTION     0.19     0.30     6.61     0  02:54        0.30
  WS02004409           JUNCTION     0.43     0.67     6.44     0  02:54        0.67
  WS02004410           JUNCTION     0.46     0.68     6.40     0  02:54        0.68
  WS02004411           JUNCTION     0.48     0.69     6.37     0  02:54        0.69
  WS02004412           JUNCTION     0.49     0.70     6.34     0  02:55        0.70
  WS02004413           JUNCTION     0.65     0.86     6.33     0  02:55        0.86
  WS02006109           JUNCTION     0.69     1.22     7.84     0  02:32        1.02
  WS02006110           JUNCTION     0.69     1.28     7.87     0  02:32        0.96
  WS02006111           JUNCTION     0.19     0.29     6.99     0  02:48        0.29
  WS02006112           JUNCTION     0.79     1.10     6.98     0  02:32        1.05
  WS02006113           JUNCTION     0.30     0.46     7.35     0  01:52        0.46
  WS02006115           JUNCTION     0.51     0.75     6.89     0  02:52        0.75
  WS02006116           JUNCTION     0.60     0.83     6.87     0  02:52        0.83
  WS02006228           JUNCTION     0.69     1.27     7.92     0  02:22        1.15
  WS02006229           JUNCTION     0.66     1.32     8.01     0  02:22        1.18
  WS02006230           JUNCTION     0.67     1.55     8.30     0  02:22        1.26
  WS02006231           JUNCTION     0.47     1.88     9.01     0  02:31        1.07
  WS02006232           JUNCTION     0.61     1.41     8.45     0  04:01        1.29
  WS02006234           JUNCTION     0.54     1.72     8.87     0  04:01        1.29
  WS02006235           JUNCTION     0.58     1.60     8.76     0  01:50        1.35
  WS02006238           JUNCTION     0.61     1.66     8.80     0  01:50        1.38
  WS02006239           JUNCTION     0.58     1.67     8.88     0  01:50        1.34
  WS02006240           JUNCTION     0.54     1.60     8.90     0  01:50        1.28
  WS02006242           JUNCTION     0.62     1.55     8.82     0  01:50        1.33
  WS02006243           JUNCTION     0.52     1.41     8.83     0  02:31        1.21
  WS02006245           JUNCTION     0.52     1.36     8.84     0  02:31        1.16
  WS02006247           JUNCTION     0.54     1.30     8.80     0  02:31        1.19
  WS02006248           JUNCTION     0.50     1.10     8.69     0  01:50        1.09
  WS02006249           JUNCTION     0.53     1.09     8.69     0  01:50        1.09
  WS02006251           JUNCTION     0.53     1.64     9.31     0  02:21        1.13
  WS02006252           JUNCTION     0.38     1.50     9.74     0  00:00        0.70
  WS02006256           JUNCTION     1.07     2.35     9.28     0  00:00        2.35
  WSF200               JUNCTION     0.19     0.29     5.52     0  02:55        0.29
  YS02001580           JUNCTION     0.11     1.05     9.59     0  01:42        0.77
  YS02001583           JUNCTION     0.15     1.14     9.64     0  01:42        0.82
  YS02001586           JUNCTION     0.22     1.13     9.30     0  01:42        1.13
  YS02001590           JUNCTION     0.32     1.40     9.26     0  01:40        1.37
  YS02001593           JUNCTION     0.25     1.33     9.19     0  01:42        1.28
  YS02001596           JUNCTION     0.34     1.68     9.10     0  01:42        1.66
  YS02001600           JUNCTION     0.40     1.87     9.00     0  01:42        1.87
  YS02001601           JUNCTION     0.58     2.06     8.90     0  01:41        2.06
  YS02001602           JUNCTION     0.49     1.87     8.77     0  01:41        1.87
  YS02001605           JUNCTION     0.46     1.78     8.68     0  01:42        1.78
  YS02001607           JUNCTION     0.46     1.68     8.53     0  01:42        1.66
  YS02001610           JUNCTION     0.50     1.68     8.48     0  01:42        1.68
  YS02001613           JUNCTION     0.46     1.70     8.54     0  01:42        1.67
  YS02001616           JUNCTION     0.39     1.61     8.52     0  01:42        1.61
  YS02001619           JUNCTION     0.37     1.61     8.54     0  01:42        1.61
  YS02001622           JUNCTION     0.36     1.62     8.52     0  01:42        1.57
  YS02001625           JUNCTION     0.63     1.78     8.38     0  01:42        1.78
  YS02001629           JUNCTION     0.48     1.85     8.40     0  01:42        1.85
  YS02001633           JUNCTION     0.56     2.08     8.53     0  01:46        2.08
  YS02001641           JUNCTION     0.54     2.10     8.54     0  01:46        2.10
  YS02001644           JUNCTION     0.54     1.92     8.35     0  01:46        1.92
  YS02001647           JUNCTION     0.33     1.84     8.45     0  01:47        1.84
  YS02001649           JUNCTION     0.38     2.05     8.44     0  01:47        2.05
  YS02001652           JUNCTION     0.27     1.97     8.57     0  01:47        1.97
  YS02001655           JUNCTION     0.21     2.17     9.02     0  01:46        1.76
  YS02001658           JUNCTION     0.15     2.28     9.43     0  01:46        1.42
  YS02001661           JUNCTION     0.17     1.43     8.84     0  01:47        1.19
  YS02001664           JUNCTION     0.06     0.83     8.76     0  01:47        0.68
  YS02001745           JUNCTION     0.08     1.38     8.90     0  01:47        0.91
  YS02001748           JUNCTION     0.15     1.86     8.93     0  01:46        1.36
  YS02001751           JUNCTION     0.19     1.80     8.68     0  01:47        1.61
  YS02001754           JUNCTION     0.25     1.90     8.51     0  01:47        1.88
  YS02001757           JUNCTION     0.40     2.11     8.38     0  01:47        2.11
  YS02001759           JUNCTION     0.34     2.17     8.54     0  01:48        2.17
  YS02001762           JUNCTION     0.34     2.15     8.55     0  01:47        2.15
  YS02001765           JUNCTION     0.32     2.10     8.55     0  01:45        2.10
  YS02001767           JUNCTION     0.31     2.03     8.52     0  01:45        2.03
  YS02001770           JUNCTION     0.32     1.95     8.44     0  01:45        1.95
  YS02001774           JUNCTION     0.39     2.05     8.47     0  01:45        2.00
  YS02001779           JUNCTION     0.23     1.68     8.37     0  01:45        1.68
  YS02001783           JUNCTION     0.25     1.60     7.74     0  01:45        1.23
  YS02001784           JUNCTION     0.26     1.32     7.39     0  01:45        1.12
  YS02001786           JUNCTION     0.22     1.13     7.16     0  01:45        0.88
  YS02001788           JUNCTION     0.15     0.63     6.60     0  01:47        0.62
  YS02001790           JUNCTION     0.18     0.72     6.37     0  01:53        0.72
  YS02001791           JUNCTION     0.12     0.44     5.91     0  01:52        0.42
  YS02001793           JUNCTION     0.06     0.30     5.14     0  01:46        0.29
  YS02001882           JUNCTION     0.32     1.83     8.55     0  01:43        1.76
  YS02001884           JUNCTION     0.41     1.90     8.52     0  01:43        1.85
  YS02001887           JUNCTION     0.49     1.97     8.51     0  01:48        1.97
  YS02001890           JUNCTION     0.52     1.81     8.32     0  01:43        1.81
  YS02001895           JUNCTION     0.29     1.67     8.42     0  01:43        1.57
  YS02001898           JUNCTION     0.29     1.73     8.46     0  01:43        1.57
  YS02001901           JUNCTION     0.41     1.79     8.40     0  01:43        1.68
  YS02001904           JUNCTION     0.39     1.66     8.29     0  01:43        1.64
  YS02001907           JUNCTION     0.71     1.96     8.25     0  01:44        1.96
  YS02001910           JUNCTION     0.51     2.05     8.56     0  01:44        2.01
  YS02001915           JUNCTION     0.32     2.00     8.72     0  01:43        1.99
  YS02001918           JUNCTION     0.18     1.81     8.88     0  01:44        1.81
  YS02001920           JUNCTION     0.26     2.14     9.15     0  01:45        1.65
  YS02001923           JUNCTION     0.14     2.03     9.29     0  01:45        1.36
  YS02001926           JUNCTION     0.17     1.90     9.35     0  01:45        1.19
  YS02001929           JUNCTION     0.10     1.78     9.47     0  01:45        1.08
  YS02006553           JUNCTION     0.72     2.07     8.35     0  01:45        2.03
  YS02006556           JUNCTION     0.69     2.15     8.46     0  01:45        2.05
  YS02006558           JUNCTION     0.73     2.22     8.48     0  01:45        2.17
  YS02006561           JUNCTION     0.15     1.45     8.11     0  01:45        0.91
  YS02163301           JUNCTION     0.50     1.97     8.49     0  01:46        1.97
  YS02163601           JUNCTION     0.60     2.08     8.48     0  01:46        2.08
  YS02164001           JUNCTION     0.53     2.10     8.56     0  01:46        2.10
  CC-1                 OUTFALL      0.00     0.00     0.00     0  00:00        0.00
  CC-2                 OUTFALL      0.00     0.00     0.00     0  00:00        0.00
  JK-1                 OUTFALL      0.00     0.00     0.00     0  00:00        0.00
  JK-2                 OUTFALL      0.00     0.00     0.00     0  00:00        0.00
  WSC                  OUTFALL      0.20     0.30     0.97     0  02:58        0.30
  CC-storage           STORAGE      0.91     1.80     7.30     0  02:26        1.80
  JK-storage           STORAGE      3.08     4.23     5.03     0  01:46        4.20
  
  
  *******************
  Node Inflow Summary
  *******************
  
  -------------------------------------------------------------------------------------------------
                                  Maximum  Maximum                  Lateral       Total        Flow
                                  Lateral    Total  Time of Max      Inflow      Inflow     Balance
                                   Inflow   Inflow   Occurrence      Volume      Volume       Error
  Node                 Type           LPS      LPS  days hr:min    10^6 ltr    10^6 ltr     Percent
  -------------------------------------------------------------------------------------------------
  WS02003060           JUNCTION     16.53   554.01     0  02:56       0.476        6.43       0.040
  WS02003066           JUNCTION      0.00   537.18     0  02:55           0        5.96       0.026
  WS02003067           JUNCTION      0.00   537.08     0  02:55           0        5.96       0.074
  WS02003069           JUNCTION      0.32   554.14     0  02:56     0.00922        6.44       0.065
  WS02003072           JUNCTION      0.00   553.71     0  02:57           0        6.43       0.108
  WS02003073           JUNCTION      1.82   555.31     0  02:58      0.0524        6.48       0.082
  WS02004401           JUNCTION      0.00   539.64     0  02:53           0        6.07       0.185
  WS02004402           JUNCTION      0.00   539.34     0  02:53           0        6.06       0.186
  WS02004403           JUNCTION      0.00   538.86     0  02:53           0        6.05       0.180
  WS02004404           JUNCTION      0.16   538.87     0  02:53     0.00467        6.04       0.148
  WS02004405           JUNCTION      0.04   538.72     0  02:53      0.0011        6.03       0.222
  WS02004406           JUNCTION      0.00   538.63     0  02:53           0        6.02       0.367
  WS02004407           JUNCTION      0.00   538.44     0  02:53           0           6       0.031
  WS02004409           JUNCTION      0.00   538.17     0  02:54           0           6       0.062
  WS02004410           JUNCTION      0.00   537.78     0  02:54           0        5.99       0.086
  WS02004411           JUNCTION      0.00   537.64     0  02:54           0        5.99       0.105
  WS02004412           JUNCTION      0.00   537.48     0  02:55           0        5.98       0.136
  WS02004413           JUNCTION      0.00   537.38     0  02:55           0        5.97       0.237
  WS02006109           JUNCTION      1.23   559.65     0  02:22      0.0354        6.13       0.179
  WS02006110           JUNCTION      0.00   560.56     0  01:51           0        6.11       0.122
  WS02006111           JUNCTION      0.00   560.72     0  01:54           0         6.1       0.014
  WS02006112           JUNCTION      0.00   543.50     0  02:48           0         6.1       0.305
  WS02006113           JUNCTION      0.00   569.66     0  01:51           0        6.11       0.048
  WS02006115           JUNCTION      0.00   555.33     0  02:15           0        6.09       0.125
  WS02006116           JUNCTION      0.00   540.77     0  02:52           0        6.08       0.112
  WS02006228           JUNCTION      0.00   558.56     0  01:51           0         6.1       0.081
  WS02006229           JUNCTION      0.00   558.24     0  02:22           0         6.1       0.079
  WS02006230           JUNCTION     10.28   583.05     0  02:14       0.296         6.1       0.070
  WS02006231           JUNCTION      0.00   585.55     0  01:50           0        5.81       0.014
  WS02006232           JUNCTION      0.00   583.97     0  01:50           0        5.82       0.173
  WS02006234           JUNCTION      0.00   576.25     0  01:50           0        5.81      -0.124
  WS02006235           JUNCTION      0.00   566.36     0  02:21           0        5.88       0.118
  WS02006238           JUNCTION      0.00   422.81     0  02:35           0        4.79      -0.157
  WS02006239           JUNCTION      0.00   422.42     0  02:20           0        4.75      -0.110
  WS02006240           JUNCTION      0.00   420.20     0  02:20           0        4.72      -0.045
  WS02006242           JUNCTION      0.00   420.34     0  02:20           0         4.7      -0.017
  WS02006243           JUNCTION      0.00   419.62     0  02:20           0        4.68      -0.143
  WS02006245           JUNCTION      0.00   418.96     0  02:20           0        4.69       0.166
  WS02006247           JUNCTION      0.00   418.19     0  02:20           0        4.69       0.003
  WS02006248           JUNCTION      0.00   418.40     0  02:10           0        4.69       0.024
  WS02006249           JUNCTION      0.00   459.02     0  00:00           0        4.99       0.204
  WS02006251           JUNCTION      0.08   407.24     0  01:50     0.00222        4.99       0.023
  WS02006252           JUNCTION      0.00   400.00     0  00:00           0        4.98      -0.108
  WS02006256           JUNCTION      0.00   300.00     0  00:00           0        1.63      -0.536
  WSF200               JUNCTION      0.00   537.25     0  02:55           0        5.95       0.010
  YS02001580           JUNCTION      0.00   126.56     0  01:42           0     0.00458       1.977
  YS02001583           JUNCTION      0.00   191.09     0  01:42           0      0.0156      -5.222
  YS02001586           JUNCTION    832.63   832.65     0  01:53        2.09         2.1       0.066
  YS02001590           JUNCTION      0.00   318.40     0  02:15           0        1.53      -0.024
  YS02001593           JUNCTION      0.00   318.95     0  02:15           0        1.53      -0.002
  YS02001596           JUNCTION      0.00   318.06     0  02:13           0        1.53      -0.012
  YS02001600           JUNCTION      0.00   318.06     0  02:14           0        1.53      -0.003
  YS02001601           JUNCTION   1502.91  1820.19     0  01:51        2.84        4.38       0.008
  YS02001602           JUNCTION      0.00   529.31     0  01:42           0        2.53       0.011
  YS02001605           JUNCTION      0.00   529.13     0  01:42           0        2.37       0.013
  YS02001607           JUNCTION      0.00   528.87     0  01:42           0        2.37       0.076
  YS02001610           JUNCTION      0.00   833.92     0  01:53           0        2.74       0.072
  YS02001613           JUNCTION      0.00   546.73     0  01:41           0        2.14       0.071
  YS02001616           JUNCTION      0.00   549.19     0  01:41           0        2.14       0.011
  YS02001619           JUNCTION   1478.92  1478.92     0  01:53        3.35        5.11      -0.004
  YS02001622           JUNCTION      0.00   990.58     0  01:51           0        4.73      -0.006
  YS02001625           JUNCTION      0.00  1407.34     0  01:54           0        5.02       0.179
  YS02001629           JUNCTION      0.00   928.96     0  01:42           0        3.75       0.003
  YS02001633           JUNCTION   1129.51  1381.58     0  01:44        2.09        5.45       0.055
  YS02001641           JUNCTION      0.00  1381.13     0  01:44           0        5.09       0.049
  YS02001644           JUNCTION   1011.50  1806.20     0  01:44        1.81        6.89       0.044
  YS02001647           JUNCTION      0.00  1805.60     0  01:44           0        6.15       0.006
  YS02001649           JUNCTION      0.00  2040.39     0  01:44           0        7.82      -0.004
  YS02001652           JUNCTION      0.00  1011.30     0  01:50           0        1.66      -0.069
  YS02001655           JUNCTION      0.15  1011.35     0  01:50     0.00443        1.66       0.010
  YS02001658           JUNCTION      0.00  1011.24     0  01:50           0        1.66      -0.038
  YS02001661           JUNCTION      0.00  1010.21     0  01:50           0        1.66       0.026
  YS02001664           JUNCTION    983.88   983.88     0  01:50        1.66        1.66      -0.015
  YS02001745           JUNCTION    636.30   636.30     0  01:50       0.997       0.999       0.139
  YS02001748           JUNCTION      0.04   653.05     0  01:50      0.0013           1      -0.255
  YS02001751           JUNCTION      0.01   653.58     0  01:50    0.000317        1.01       0.034
  YS02001754           JUNCTION      0.26   653.85     0  01:50     0.00749        1.02      -0.156
  YS02001757           JUNCTION      0.00  3392.97     0  01:47           0          12       0.021
  YS02001759           JUNCTION    882.51  1402.00     0  01:49        1.38        3.14      -0.012
  YS02001762           JUNCTION      0.00   788.78     0  01:46           0        1.76      -0.011
  YS02001765           JUNCTION      0.00   787.78     0  01:46           0        1.76       0.001
  YS02001767           JUNCTION      0.54   786.89     0  01:46      0.0154        1.76       0.004
  YS02001770           JUNCTION   1237.28  1237.28     0  01:51         2.1        2.14      -0.022
  YS02001774           JUNCTION      0.00   748.30     0  01:50           0        0.42       0.216
  YS02001779           JUNCTION      0.01   747.67     0  01:50    0.000144       0.374      -0.154
  YS02001783           JUNCTION      0.00  1169.65     0  01:48           0        4.65       0.003
  YS02001784           JUNCTION      1.06  1171.68     0  01:48      0.0305        4.68       0.010
  YS02001786           JUNCTION      0.06  1171.82     0  01:48     0.00162        4.68       0.015
  YS02001788           JUNCTION      0.07  1172.22     0  01:48     0.00204        4.68       0.007
  YS02001790           JUNCTION      0.15  1183.33     0  01:48     0.00446        4.68       0.023
  YS02001791           JUNCTION      0.00  1291.36     0  01:52           0        4.68      -0.029
  YS02001793           JUNCTION      0.00  1257.53     0  01:50           0        4.69       0.005
  YS02001882           JUNCTION      0.00    66.13     0  01:43           0      0.0129       4.265
  YS02001884           JUNCTION      0.00    66.63     0  01:42           0       0.049       4.892
  YS02001887           JUNCTION    954.24   954.24     0  01:50        1.44        1.47       0.299
  YS02001890           JUNCTION      0.00   954.96     0  01:50           0        1.43       0.348
  YS02001895           JUNCTION      0.00   517.20     0  01:53           0        1.25       0.135
  YS02001898           JUNCTION      0.00   517.28     0  01:53           0        1.25      -0.003
  YS02001901           JUNCTION      0.00   517.58     0  01:53           0        1.25       0.265
  YS02001904           JUNCTION      0.00   517.45     0  01:53           0        1.26       0.205
  YS02001907           JUNCTION      0.00  2249.91     0  01:51           0         4.4       0.394
  YS02001910           JUNCTION      0.00  1626.62     0  01:51           0        3.13       0.225
  YS02001915           JUNCTION   1094.07  1626.26     0  01:51           2        3.17       0.040
  YS02001918           JUNCTION      0.00   539.22     0  01:52           0        1.21      -0.014
  YS02001920           JUNCTION      2.87   539.72     0  01:52      0.0827        1.19       0.077
  YS02001923           JUNCTION      0.04   536.34     0  01:52     0.00109        1.09      -0.091
  YS02001926           JUNCTION      0.05   668.60     0  01:45      0.0015        1.07      -0.034
  YS02001929           JUNCTION    529.80   529.80     0  01:52        1.05        1.05      -0.028
  YS02006553           JUNCTION      0.00   797.57     0  02:13           0        2.63       0.447
  YS02006556           JUNCTION      0.00   798.37     0  02:13           0        2.64       0.290
  YS02006558           JUNCTION   1269.34  1269.34     0  01:50         2.1         4.7       0.072
  YS02006561           JUNCTION      0.00  1181.80     0  01:45           0        4.65      -0.003
  YS02163301           JUNCTION      0.00   925.56     0  01:44           0        3.74       0.030
  YS02163601           JUNCTION      0.11  1381.67     0  01:44     0.00317        5.08       0.089
  YS02164001           JUNCTION      0.00  1381.65     0  01:44           0        5.08       0.031
  CC-1                 OUTFALL       0.00   683.00     0  00:00           0        4.09       0.000
  CC-2                 OUTFALL       0.00   683.00     0  00:00           0        3.71       0.000
  JK-1                 OUTFALL       0.00  1000.00     0  00:00           0        2.46       0.000
  JK-2                 OUTFALL       0.00  1000.00     0  00:00           0       0.573       0.000
  WSC                  OUTFALL       0.00   555.15     0  02:58           0        6.47       0.000
  CC-storage           STORAGE       0.00  3392.27     0  01:47           0        14.2      -0.202
  JK-storage           STORAGE       0.00  1257.02     0  01:55           0        4.84       0.065
  
  
  **********************
  Node Surcharge Summary
  **********************
  
  Surcharging occurs when water rises above the top of the highest conduit.
  ---------------------------------------------------------------------
                                               Max. Height   Min. Depth
                                   Hours       Above Crown    Below Rim
  Node                 Type      Surcharged         Meters       Meters
  ---------------------------------------------------------------------
  WS02006109           JUNCTION        2.52          0.404        1.416
  WS02006110           JUNCTION        1.03          0.370        1.480
  WS02006112           JUNCTION        1.03          0.098        1.582
  WS02006228           JUNCTION        2.50          0.439        1.761
  WS02006229           JUNCTION        2.53          0.521        1.929
  WS02006230           JUNCTION        1.06          0.473        1.097
  WS02006231           JUNCTION        1.15          1.172        0.358
  WS02006232           JUNCTION        2.66          0.710        0.770
  WS02006234           JUNCTION        1.54          0.997        0.243
  WS02006235           JUNCTION        2.51          0.886        0.404
  WS02006238           JUNCTION        2.60          0.940        0.490
  WS02006239           JUNCTION        2.52          0.930        0.360
  WS02006240           JUNCTION        2.54          0.892        0.498
  WS02006242           JUNCTION        2.68          0.820        0.000
  WS02006243           JUNCTION        2.50          0.704        0.066
  WS02006245           JUNCTION        2.49          0.646        0.204
  WS02006247           JUNCTION        2.52          0.588        0.172
  WS02006248           JUNCTION        2.46          0.380        0.000
  WS02006249           JUNCTION        2.49          0.390        0.000
  WS02006251           JUNCTION        1.21          0.608        0.572
  WS02006252           JUNCTION        2.93          1.100        0.000
  WS02006256           JUNCTION        5.65          2.050        0.000
  YS02001580           JUNCTION        0.78          0.450        0.000
  YS02001583           JUNCTION        0.79          0.500        0.000
  YS02001586           JUNCTION        0.96          0.510        0.000
  YS02001590           JUNCTION        1.05          0.750        0.000
  YS02001593           JUNCTION        1.06          0.707        0.133
  YS02001596           JUNCTION        1.19          0.955        0.115
  YS02001600           JUNCTION        1.37          1.190        0.000
  YS02001601           JUNCTION        1.65          1.440        0.000
  YS02001602           JUNCTION        1.57          1.270        0.000
  YS02001605           JUNCTION        1.53          1.180        0.000
  YS02001607           JUNCTION        1.06          0.680        0.000
  YS02001610           JUNCTION        1.09          0.680        0.000
  YS02001613           JUNCTION        1.06          0.700        0.000
  YS02001616           JUNCTION        1.01          0.610        0.000
  YS02001619           JUNCTION        1.00          0.610        0.000
  YS02001622           JUNCTION        0.99          0.620        0.000
  YS02001625           JUNCTION        1.20          0.780        0.000
  YS02001629           JUNCTION        0.94          0.470        0.000
  YS02001633           JUNCTION        1.24          1.060        0.000
  YS02001641           JUNCTION        1.19          1.100        0.000
  YS02001644           JUNCTION        1.17          0.920        0.000
  YS02001647           JUNCTION        0.94          0.840        0.060
  YS02001649           JUNCTION        1.10          1.050        0.000
  YS02001652           JUNCTION        0.87          0.942        0.188
  YS02001655           JUNCTION        0.65          1.173        0.027
  YS02001658           JUNCTION        0.32          1.285        0.015
  YS02001661           JUNCTION        0.10          0.365        1.025
  YS02001745           JUNCTION        0.01          0.382        0.968
  YS02001748           JUNCTION        0.24          0.777        0.413
  YS02001751           JUNCTION        0.47          0.800        0.400
  YS02001754           JUNCTION        0.75          0.847        0.303
  YS02001757           JUNCTION        1.18          1.114        0.096
  YS02001759           JUNCTION        1.08          1.173        0.037
  YS02001762           JUNCTION        1.04          1.150        0.000
  YS02001765           JUNCTION        0.99          1.100        0.000
  YS02001767           JUNCTION        0.94          1.030        0.000
  YS02001770           JUNCTION        0.90          0.920        0.000
  YS02001774           JUNCTION        1.01          1.050        0.000
  YS02001779           JUNCTION        0.75          0.680        0.000
  YS02001783           JUNCTION        0.66          0.803        0.797
  YS02001784           JUNCTION        0.64          0.519        0.971
  YS02001786           JUNCTION        0.52          0.332        1.098
  YS02001882           JUNCTION        0.60          0.830        0.000
  YS02001884           JUNCTION        0.61          0.841        0.029
  YS02001887           JUNCTION        0.65          0.922        0.028
  YS02001890           JUNCTION        0.67          0.760        0.000
  YS02001895           JUNCTION        0.59          0.669        0.081
  YS02001898           JUNCTION        0.58          0.696        0.044
  YS02001901           JUNCTION        0.64          0.787        0.083
  YS02001904           JUNCTION        0.63          0.659        0.191
  YS02001907           JUNCTION        0.90          0.950        0.000
  YS02001910           JUNCTION        0.69          1.051        0.049
  YS02001915           JUNCTION        0.60          1.000        0.000
  YS02001918           JUNCTION        0.50          0.810        0.000
  YS02001920           JUNCTION        0.52          1.140        0.000
  YS02001923           JUNCTION        0.17          0.820        0.000
  YS02001926           JUNCTION        0.19          0.900        0.000
  YS02001929           JUNCTION        0.01          0.780        0.000
  YS02006553           JUNCTION        0.93          1.068        0.122
  YS02006556           JUNCTION        0.80          1.109        0.241
  YS02006558           JUNCTION        0.78          1.116        0.284
  YS02006561           JUNCTION        0.47          0.648        0.502
  YS02163301           JUNCTION        1.22          0.972        0.058
  YS02163601           JUNCTION        1.28          1.080        0.000
  YS02164001           JUNCTION        1.19          1.100        0.000
  
  
  *********************
  Node Flooding Summary
  *********************
  
  Flooding refers to all water that overflows a node, whether it ponds or not.
  --------------------------------------------------------------------------
                                                             Total   Maximum
                                 Maximum   Time of Max       Flood    Ponded
                        Hours       Rate    Occurrence      Volume     Depth
  Node                 Flooded       LPS   days hr:min    10^6 ltr    Meters
  --------------------------------------------------------------------------
  WS02006242              0.01     25.87      0  04:01       0.000     0.000
  WS02006248              0.01     17.85      0  02:31       0.000     0.000
  WS02006249              1.17     94.99      0  05:24       0.290     0.000
  WS02006252              0.01    245.63      0  00:00       0.000     0.000
  WS02006256              1.51    293.19      0  00:00       0.521     0.000
  YS02001580              0.01    111.70      0  01:42       0.000     0.000
  YS02001583              0.01    140.70      0  01:42       0.000     0.000
  YS02001586              0.63    515.07      0  01:53       0.551     0.000
  YS02001590              0.01     33.80      0  01:40       0.000     0.000
  YS02001600              0.01      0.97      0  01:42       0.000     0.000
  YS02001601              0.87   1422.36      0  01:51       1.851     0.000
  YS02001602              0.79     62.00      0  01:50       0.157     0.000
  YS02001605              0.01      5.43      0  01:42       0.000     0.000
  YS02001607              0.01     18.82      0  01:42       0.000     0.000
  YS02001610              0.67    833.72      0  01:53       0.982     0.000
  YS02001613              0.01     15.93      0  01:42       0.000     0.000
  YS02001616              0.01     56.46      0  01:42       0.000     0.000
  YS02001619              0.01     79.07      0  01:42       0.000     0.000
  YS02001622              0.01     96.15      0  01:42       0.000     0.000
  YS02001625              0.65   1407.18      0  01:54       1.633     0.000
  YS02001629              0.16    302.80      0  01:49       0.089     0.000
  YS02001633              0.01      2.04      0  01:46       0.000     0.000
  YS02001641              0.01      4.74      0  01:46       0.000     0.000
  YS02001644              0.27   1364.35      0  01:50       0.727     0.000
  YS02001649              0.01     17.99      0  01:47       0.000     0.000
  YS02001762              0.01     16.42      0  01:47       0.000     0.000
  YS02001765              0.01     33.44      0  01:45       0.000     0.000
  YS02001767              0.01     73.15      0  01:45       0.000     0.000
  YS02001770              0.01    149.81      0  01:45       0.000     0.000
  YS02001774              0.01     92.84      0  01:45       0.000     0.000
  YS02001779              0.23    747.52      0  01:50       0.355     0.000
  YS02001882              0.01     37.45      0  01:43       0.000     0.000
  YS02001890              0.21    439.36      0  01:50       0.171     0.000
  YS02001907              0.44   2248.06      0  01:51       1.780     0.000
  YS02001915              0.01    165.68      0  01:43       0.000     0.000
  YS02001918              0.01    228.08      0  01:45       0.003     0.000
  YS02001920              0.01     53.18      0  01:45       0.000     0.000
  YS02001923              0.01    447.50      0  01:45       0.003     0.000
  YS02001926              0.01    580.41      0  01:45       0.001     0.000
  YS02001929              0.01    223.46      0  01:45       0.000     0.000
  YS02163601              0.01      4.94      0  01:46       0.000     0.000
  YS02164001              0.01      9.17      0  01:46       0.000     0.000
  
  
  **********************
  Storage Volume Summary
  **********************
  
  ------------------------------------------------------------------------------------------------
                         Average    Avg   Evap  Exfil     Maximum    Max    Time of Max    Maximum
                          Volume   Pcnt   Pcnt   Pcnt      Volume   Pcnt     Occurrence    Outflow
  Storage Unit           1000 m³   Full   Loss   Loss     1000 m³   Full    days hr:min        LPS
  ------------------------------------------------------------------------------------------------
  CC-storage               2.544   39.7    0.0    0.0       5.027   78.4       0  02:26    1783.53
  JK-storage               0.155   53.1    0.0    0.0       0.213   73.0       0  01:46    2300.00
  
  
  ***********************
  Outfall Loading Summary
  ***********************
  
  -----------------------------------------------------------
                         Flow       Avg       Max       Total
                         Freq      Flow      Flow      Volume
  Outfall Node           Pcnt       LPS       LPS    10^6 ltr
  -----------------------------------------------------------
  CC-1                  21.84    683.00    683.00       4.093
  CC-2                  19.91    683.00    683.00       3.709
  JK-1                  11.36   1000.00   1000.00       2.458
  JK-2                   2.10   1000.00   1000.00       0.573
  WSC                   99.96    298.66    555.15       6.472
  -----------------------------------------------------------
  System                31.03   3664.66   3920.93      17.305
  
  
  ********************
  Link Flow Summary
  ********************
  
  -----------------------------------------------------------------------------
                                 Maximum  Time of Max   Maximum    Max/    Max/
                                  |Flow|   Occurrence   |Veloc|    Full    Full
  Link                 Type          LPS  days hr:min     m/sec    Flow   Depth
  -----------------------------------------------------------------------------
  1                    CONDUIT    555.15     0  02:58      2.83    0.19    0.30
  WS02003060WS02003069 CONDUIT    553.82     0  02:56      1.64    0.22    0.34
  WS02003066WSF200     CONDUIT    537.25     0  02:55      2.85    0.09    0.22
  WS02003067WS02003066 CONDUIT    537.18     0  02:55      1.21    0.17    0.42
  WS02003069WS02003072 CONDUIT    553.71     0  02:57      1.37    0.27    0.39
  WS02003072WS02003073 CONDUIT    553.49     0  02:58      1.44    1.20    0.37
  WS02004401WS02004402 CONDUIT    539.34     0  02:53      0.98    0.65    0.86
  WS02004402WS02004403 CONDUIT    538.86     0  02:53      0.97    0.77    0.88
  WS02004403WS02004404 CONDUIT    538.71     0  02:53      0.92    0.39    0.93
  WS02004404WS02004405 CONDUIT    538.68     0  02:53      1.08    5.28    0.96
  WS02004405WS02004406 CONDUIT    538.63     0  02:53      0.99    1.06    0.96
  WS02004406WS02004407 CONDUIT    538.44     0  02:53      1.04    0.24    0.63
  WS02004407WS02004409 CONDUIT    538.17     0  02:54      1.56    0.19    0.48
  WS02004409WS02004410 CONDUIT    537.78     0  02:54      1.03    0.70    0.67
  WS02004410WS02004411 CONDUIT    537.64     0  02:54      0.97    0.73    0.69
  WS02004411WS02004412 CONDUIT    537.48     0  02:55      0.92    0.76    0.69
  WS02004412WS02004413 CONDUIT    537.38     0  02:55      0.82    0.36    0.78
  WS02004413WS02003067 CONDUIT    537.08     0  02:55      1.11    0.23    0.59
  WS02006109WS02006110 CONDUIT    560.56     0  01:51      1.12    1.08    1.00
  WS02006110WS02006113 CONDUIT    569.66     0  01:51      1.37    0.52    0.79
  WS02006111WS02006112 CONDUIT    543.50     0  02:48      1.81    0.26    0.67
  WS02006112WS02006115 CONDUIT    555.33     0  02:15      0.86    0.33    0.87
  WS02006113WS02006111 CONDUIT    560.72     0  01:54      2.46    0.67    0.46
  WS02006115WS02006116 CONDUIT    540.77     0  02:52      1.05    0.69    0.76
  WS02006116WS02004401 CONDUIT    539.64     0  02:53      0.98    0.74    0.84
  WS02006228WS02006109 CONDUIT    558.42     0  02:22      1.11    2.44    1.00
  WS02006229WS02006228 CONDUIT    558.56     0  01:51      1.14    1.85    1.00
  WS02006230WS02006229 CONDUIT    558.24     0  02:22      1.45   12.42    1.00
  WS02006231WS02006230 CONDUIT    572.77     0  02:14      1.57    8.69    1.00
  WS02006232WS02006231 CONDUIT    585.55     0  01:50      1.52    1.23    1.00
  WS02006234WS02006232 CONDUIT    583.97     0  01:50      1.52    1.18    1.00
  WS02006235WS02006234 CONDUIT    576.25     0  01:50      1.50    6.08    1.00
  WS02006238WS02006235 CONDUIT    424.04     0  02:20      1.45    0.95    1.00
  WS02006239WS02006238 CONDUIT    422.81     0  02:35      1.10    1.35    1.00
  WS02006240WS02006239 CONDUIT    422.42     0  02:20      1.24    1.33    1.00
  WS02006242WS02006240 CONDUIT    420.20     0  02:20      1.13    1.67    1.00
  WS02006243WS02006242 CONDUIT    420.34     0  02:20      1.40    0.90    1.00
  WS02006245WS02006243 CONDUIT    419.62     0  02:20      1.45    1.24    1.00
  WS02006247WS02006245 CONDUIT    418.96     0  02:20      1.43    3.32    1.00
  WS02006248WS02006247 CONDUIT    418.19     0  02:20      1.44    0.91    1.00
  WS02006249WS02006248 CONDUIT    418.40     0  02:10      1.36    2.29    1.00
  WS02006251WS02006249 CONDUIT    459.02     0  00:00      1.99    1.32    1.00
  WS02006252WS02006251 CONDUIT    407.16     0  01:50     24.61    1.49    1.00
  WS02006256WS02006235 CONDUIT    288.91     0  00:00      4.23    3.06    1.00
  WSF200WS02003060     CONDUIT    537.48     0  02:56      2.06    0.12    0.28
  YS02001580YS02001583 CONDUIT    126.56     0  01:42      0.73    0.49    1.00
  YS02001583YS02001586 CONDUIT    169.72     0  01:42      0.74    0.26    1.00
  YS02001586YS02001590 CONDUIT    318.40     0  02:15      1.26    0.56    1.00
  YS02001590YS02001593 CONDUIT    318.95     0  02:15      1.13    2.00    1.00
  YS02001593YS02001596 CONDUIT    318.06     0  02:13      1.73    0.50    1.00
  YS02001596YS02001600 CONDUIT    318.06     0  02:14      1.24    0.62    1.00
  YS02001600YS02001601 CONDUIT    318.27     0  02:15      1.13    0.55    1.00
  YS02001601YS02001602 CONDUIT    529.31     0  01:42      1.87    1.91    1.00
  YS02001602YS02001605 CONDUIT    529.13     0  01:42      1.87   11.20    1.00
  YS02001605YS02001607 CONDUIT    528.87     0  01:42      1.87    2.90    1.00
  YS02001607YS02001610 CONDUIT    539.44     0  01:41      0.69    0.51    1.00
  YS02001610YS02001613 CONDUIT    546.73     0  01:41      0.70    0.63    1.00
  YS02001613YS02001616 CONDUIT    549.19     0  01:41      0.71    0.47    1.00
  YS02001616YS02001619 CONDUIT    506.41     0  01:42      0.68    0.88    1.00
  YS02001619YS02001622 CONDUIT    990.58     0  01:51      1.26    1.46    1.00
  YS02001622YS02001625 CONDUIT    991.14     0  01:51      1.26    0.53    1.00
  YS02001625YS02001629 CONDUIT    928.96     0  01:42      1.19    0.44    1.00
  YS02001629YS02163301 CONDUIT    925.56     0  01:44      1.18    1.14    1.00
  YS02001633YS02163601 CONDUIT   1381.56     0  01:44      1.76    1.45    1.00
  YS02001641YS02001644 CONDUIT   1380.77     0  01:44      1.76    4.46    1.00
  YS02001644YS02001647 CONDUIT   1805.60     0  01:44      2.31    1.06    1.00
  YS02001647YS02001649 CONDUIT   1832.01     0  01:44      2.33    0.97    1.00
  YS02001649YS02001757 CONDUIT   2036.29     0  01:44      2.60    1.24    1.00
  YS02001652YS02001649 CONDUIT   1011.22     0  01:50      1.29    0.50    1.00
  YS02001655YS02001652 CONDUIT   1011.30     0  01:50      1.39    0.49    1.00
  YS02001658YS02001655 CONDUIT   1011.19     0  01:50      1.92    0.43    1.00
  YS02001661YS02001658 CONDUIT   1011.24     0  01:50      2.35    0.40    1.00
  YS02001664YS02001661 CONDUIT   1010.21     0  01:50      2.36    0.32    0.92
  YS02001745YS02001748 CONDUIT    653.00     0  01:50      2.23    0.25    1.00
  YS02001748YS02001751 CONDUIT    653.57     0  01:50      1.73    0.33    1.00
  YS02001751YS02001754 CONDUIT    653.59     0  01:50      1.47    0.32    1.00
  YS02001754YS02001757 CONDUIT    653.82     0  01:50      0.83    0.26    1.00
  YS02001757CaochengTiaoxuchi CONDUIT   3392.27     0  01:47      4.32    1.47    1.00
  YS02001759YS02001757 CONDUIT   1403.66     0  01:49      1.79    1.00    1.00
  YS02001762YS02001759 CONDUIT    789.33     0  01:46      1.01    0.91    1.00
  YS02001765YS02001762 CONDUIT    788.78     0  01:46      1.00    0.74    1.00
  YS02001767YS02001765 CONDUIT    787.78     0  01:46      1.00    0.99    1.00
  YS02001770YS02001767 CONDUIT    786.35     0  01:46      1.00    3.11    1.00
  YS02001774YS02001770 CONDUIT    748.30     0  01:50      0.95    0.48    1.00
  YS02001779YS02001774 CONDUIT    747.67     0  01:50      0.95    0.38    1.00
  YS02001783YS02001784 CONDUIT   1170.62     0  01:48      2.33    1.61    1.00
  YS02001784YS02001785 CONDUIT   1171.77     0  01:48      2.33    2.73    1.00
  YS02001786YS02001788 CONDUIT   1172.15     0  01:48      2.49    2.26    0.89
  YS02001788YS02001790 CONDUIT   1183.18     0  01:48      2.72    0.87    0.84
  YS02001790YS02001791 CONDUIT   1291.36     0  01:52      3.44    1.41    0.70
  YS02001791YS02001793 CONDUIT   1257.53     0  01:50      6.75    0.54    0.45
  YS02001793JiankangQianchi CONDUIT   1257.02     0  01:55      2.52    0.10    0.65
  YS02001882YS02001884 CONDUIT     66.13     0  01:43      0.16    0.08    1.00
  YS02001884YS02001887 CONDUIT     66.63     0  01:42      0.12    0.09    1.00
  YS02001887YS02001890 CONDUIT    954.96     0  01:50      1.22    1.63    1.00
  YS02001890YS02001895 CONDUIT    517.20     0  01:53      0.66    0.24    1.00
  YS02001895YS02001898 CONDUIT    517.28     0  01:53      0.66    0.90    1.00
  YS02001898YS02001901 CONDUIT    517.58     0  01:53      0.66    0.33    1.00
  YS02001901YS02001904 CONDUIT    517.45     0  01:53      0.66    0.80    1.00
  YS02001904YS02001907 CONDUIT    517.47     0  01:51      0.66    0.18    1.00
  YS02001907YS02006553 CONDUIT    797.57     0  02:13      0.89    0.94    1.00
  YS02001910YS02001907 CONDUIT   1626.73     0  01:50      2.07    0.92    1.00
  YS02001915YS02001910 CONDUIT   1626.62     0  01:51      2.07    0.81    1.00
  YS02001918YS02001915 CONDUIT    539.50     0  01:52      0.69    0.30    1.00
  YS02001920YS02001918 CONDUIT    539.22     0  01:52      0.69    0.52    1.00
  YS02001923YS02001920 CONDUIT    536.85     0  01:52      0.70    0.24    1.00
  YS02001926YS02001923 CONDUIT    536.30     0  01:52      0.96    0.77    1.00
  YS02001929YS02001926 CONDUIT    535.48     0  01:52      1.14    0.25    1.00
  YS02006553YS02006556 CONDUIT    798.37     0  02:13      1.02    0.68    1.00
  YS02006556YS02006558 CONDUIT    800.01     0  02:14      1.02    0.63    1.00
  YS02006558YS02006561 CONDUIT   1181.80     0  01:45      4.18    2.61    1.00
  YS02006561YS02001783 CONDUIT   1169.65     0  01:48      2.33    0.61    1.00
  YS02163301YS02001633 CONDUIT    925.66     0  01:44      1.18    0.87    1.00
  YS02163601YS02164001 CONDUIT   1381.65     0  01:44      1.76    1.22    1.00
  YS02164001YS02001641 CONDUIT   1381.13     0  01:44      1.76    1.89    1.00
  CC-R1                PUMP       683.00     0  00:00              1.00
  CC-R2                PUMP       683.00     0  00:00              1.00
  CC-S1                PUMP       200.00     0  00:00              1.00
  CC-S2                PUMP       200.00     0  00:00              1.00
  JK-R1                PUMP      1000.00     0  00:00              1.00
  JK-R2                PUMP      1000.00     0  00:00              1.00
  JK-S                 PUMP       300.00     0  00:00              1.00
  
  
  ***************************
  Flow Classification Summary
  ***************************
  
  -------------------------------------------------------------------------------------
                      Adjusted    ---------- Fraction of Time in Flow Class ---------- 
                       /Actual         Up    Down  Sub   Sup   Up    Down  Norm  Inlet 
  Conduit               Length    Dry  Dry   Dry   Crit  Crit  Crit  Crit  Ltd   Ctrl  
  -------------------------------------------------------------------------------------
  1                       1.00   0.00  0.00  0.00  0.00  1.00  0.00  0.00  0.52  0.00
  WS02003060WS02003069    1.00   0.00  0.00  0.00  0.98  0.02  0.00  0.00  0.60  0.00
  WS02003066WSF200        1.00   0.13  0.00  0.00  0.00  0.87  0.00  0.00  0.73  0.00
  WS02003067WS02003066    1.00   0.10  0.02  0.00  0.88  0.00  0.00  0.00  0.00  0.00
  WS02003069WS02003072    1.00   0.00  0.00  0.00  0.99  0.01  0.00  0.00  0.65  0.00
  WS02003072WS02003073    1.00   0.00  0.00  0.00  0.00  0.00  0.00  1.00  0.00  0.00
  WS02004401WS02004402    1.00   0.02  0.00  0.00  0.98  0.00  0.00  0.00  0.00  0.00
  WS02004402WS02004403    1.00   0.02  0.00  0.00  0.97  0.00  0.00  0.00  0.00  0.00
  WS02004403WS02004404    1.00   0.00  0.03  0.00  0.97  0.00  0.00  0.00  0.00  0.00
  WS02004404WS02004405    1.00   0.00  0.00  0.00  1.00  0.00  0.00  0.00  0.00  0.00
  WS02004405WS02004406    1.00   0.00  0.00  0.00  1.00  0.00  0.00  0.00  0.00  0.00
  WS02004406WS02004407    1.00   0.00  0.05  0.00  0.95  0.00  0.00  0.00  0.00  0.00
  WS02004407WS02004409    1.00   0.05  0.00  0.00  0.94  0.01  0.00  0.00  0.94  0.00
  WS02004409WS02004410    1.00   0.05  0.00  0.00  0.95  0.00  0.00  0.00  0.03  0.00
  WS02004410WS02004411    1.00   0.05  0.00  0.00  0.95  0.00  0.00  0.00  0.01  0.00
  WS02004411WS02004412    1.00   0.05  0.00  0.00  0.95  0.00  0.00  0.00  0.00  0.00
  WS02004412WS02004413    1.00   0.05  0.00  0.00  0.94  0.00  0.00  0.00  0.01  0.00
  WS02004413WS02003067    1.00   0.06  0.04  0.00  0.00  0.00  0.90  0.00  0.00  0.00
  WS02006109WS02006110    1.00   0.00  0.01  0.00  0.98  0.00  0.01  0.00  0.00  0.00
  WS02006110WS02006113    1.00   0.01  0.01  0.00  0.98  0.00  0.00  0.00  0.00  0.00
  WS02006111WS02006112    1.00   0.02  0.00  0.00  0.98  0.00  0.00  0.00  0.98  0.00
  WS02006112WS02006115    1.00   0.02  0.00  0.00  0.97  0.00  0.00  0.00  0.00  0.00
  WS02006113WS02006111    1.00   0.02  0.00  0.00  0.00  0.98  0.00  0.00  0.15  0.00
  WS02006115WS02006116    1.00   0.02  0.00  0.00  0.97  0.00  0.00  0.01  0.00  0.00
  WS02006116WS02004401    1.00   0.02  0.00  0.00  0.98  0.00  0.00  0.00  0.00  0.00
  WS02006228WS02006109    1.00   0.00  0.00  0.00  1.00  0.00  0.00  0.00  0.00  0.00
  WS02006229WS02006228    1.00   0.00  0.00  0.00  0.99  0.00  0.00  0.01  0.00  0.00
  WS02006230WS02006229    1.00   0.00  0.00  0.00  0.99  0.00  0.00  0.01  0.00  0.00
  WS02006231WS02006230    1.00   0.00  0.00  0.00  0.36  0.00  0.64  0.00  0.00  0.00
  WS02006232WS02006231    1.00   0.00  0.00  0.00  0.99  0.00  0.01  0.00  0.00  0.00
  WS02006234WS02006232    1.00   0.00  0.00  0.00  1.00  0.00  0.00  0.00  0.20  0.00
  WS02006235WS02006234    1.00   0.00  0.00  0.00  0.75  0.00  0.25  0.00  0.00  0.00
  WS02006238WS02006235    1.00   0.00  0.00  0.00  1.00  0.00  0.00  0.00  0.00  0.00
  WS02006239WS02006238    1.00   0.00  0.00  0.00  1.00  0.00  0.00  0.00  0.29  0.00
  WS02006240WS02006239    1.00   0.00  0.00  0.00  0.66  0.00  0.00  0.34  0.01  0.00
  WS02006242WS02006240    1.00   0.00  0.00  0.00  0.99  0.00  0.01  0.00  0.00  0.00
  WS02006243WS02006242    1.00   0.00  0.00  0.00  0.99  0.00  0.00  0.01  0.45  0.00
  WS02006245WS02006243    1.00   0.00  0.00  0.00  0.71  0.00  0.00  0.29  0.02  0.00
  WS02006247WS02006245    1.00   0.00  0.00  0.00  0.96  0.00  0.00  0.03  0.00  0.00
  WS02006248WS02006247    1.00   0.00  0.00  0.00  0.99  0.00  0.00  0.01  0.21  0.00
  WS02006249WS02006248    1.00   0.00  0.00  0.00  0.55  0.00  0.45  0.00  0.00  0.00
  WS02006251WS02006249    1.00   0.00  0.00  0.00  1.00  0.00  0.00  0.00  0.47  0.00
  WS02006252WS02006251    1.00   0.00  0.49  0.00  0.15  0.00  0.36  0.00  0.00  0.00
  WS02006256WS02006235    1.00   0.00  0.00  0.00  1.00  0.00  0.00  0.00  0.00  0.00
  WSF200WS02003060        1.00   0.00  0.13  0.00  0.31  0.57  0.00  0.00  0.41  0.00
  YS02001580YS02001583    1.00   0.21  0.57  0.00  0.22  0.00  0.00  0.00  0.66  0.00
  YS02001583YS02001586    1.00   0.41  0.31  0.00  0.28  0.00  0.00  0.00  0.66  0.00
  YS02001586YS02001590    1.00   0.13  0.00  0.00  0.44  0.04  0.00  0.39  0.34  0.00
  YS02001590YS02001593    1.00   0.13  0.01  0.00  0.15  0.00  0.72  0.00  0.00  0.00
  YS02001593YS02001596    1.00   0.13  0.00  0.00  0.17  0.01  0.00  0.69  0.02  0.00
  YS02001596YS02001600    1.00   0.13  0.00  0.00  0.22  0.01  0.00  0.63  0.04  0.00
  YS02001600YS02001601    1.00   0.13  0.01  0.00  0.86  0.00  0.00  0.00  0.59  0.00
  YS02001601YS02001602    1.00   0.13  0.01  0.00  0.87  0.00  0.00  0.00  0.00  0.00
  YS02001602YS02001605    1.00   0.13  0.00  0.00  0.87  0.00  0.00  0.00  0.00  0.00
  YS02001605YS02001607    1.00   0.13  0.00  0.00  0.87  0.00  0.00  0.00  0.00  0.00
  YS02001607YS02001610    1.00   0.13  0.01  0.00  0.86  0.00  0.00  0.00  0.01  0.00
  YS02001610YS02001613    1.00   0.13  0.00  0.00  0.87  0.00  0.00  0.00  0.00  0.00
  YS02001613YS02001616    1.00   0.13  0.00  0.00  0.87  0.00  0.00  0.00  0.00  0.00
  YS02001616YS02001619    1.00   0.13  0.00  0.00  0.87  0.00  0.00  0.00  0.00  0.00
  YS02001619YS02001622    1.00   0.13  0.00  0.00  0.87  0.00  0.00  0.00  0.28  0.00
  YS02001622YS02001625    1.00   0.13  0.00  0.00  0.87  0.00  0.00  0.00  0.03  0.00
  YS02001625YS02001629    1.00   0.13  0.04  0.00  0.19  0.00  0.64  0.00  0.00  0.00
  YS02001629YS02163301    1.00   0.15  0.01  0.00  0.84  0.00  0.00  0.00  0.00  0.00
  YS02001633YS02163601    1.00   0.00  0.01  0.00  0.99  0.00  0.00  0.00  0.14  0.00
  YS02001641YS02001644    1.00   0.00  0.01  0.00  0.99  0.00  0.00  0.00  0.00  0.00
  YS02001644YS02001647    1.00   0.00  0.16  0.00  0.84  0.00  0.00  0.00  0.00  0.00
  YS02001647YS02001649    1.00   0.00  0.16  0.00  0.58  0.26  0.00  0.00  0.55  0.00
  YS02001649YS02001757    1.00   0.00  0.00  0.00  0.84  0.15  0.00  0.00  0.39  0.00
  YS02001652YS02001649    1.00   0.00  0.00  0.00  0.97  0.03  0.00  0.00  0.71  0.00
  YS02001655YS02001652    1.00   0.00  0.00  0.00  0.22  0.01  0.00  0.77  0.04  0.00
  YS02001658YS02001655    1.00   0.00  0.14  0.00  0.70  0.16  0.00  0.00  0.64  0.00
  YS02001661YS02001658    1.00   0.14  0.00  0.00  0.54  0.32  0.00  0.00  0.67  0.00
  YS02001664YS02001661    1.00   0.13  0.00  0.00  0.77  0.10  0.00  0.00  0.84  0.00
  YS02001745YS02001748    1.00   0.00  0.00  0.00  0.14  0.01  0.00  0.85  0.05  0.00
  YS02001748YS02001751    1.00   0.00  0.00  0.00  0.86  0.14  0.00  0.00  0.75  0.00
  YS02001751YS02001754    1.00   0.00  0.00  0.00  0.20  0.00  0.00  0.80  0.02  0.00
  YS02001754YS02001757    1.00   0.00  0.00  0.00  1.00  0.00  0.00  0.00  0.78  0.00
  YS02001757CaochengTiaoxuchi    1.00   0.00  0.00  0.00  0.98  0.02  0.00  0.00  0.64  0.00
  YS02001759YS02001757    1.00   0.00  0.00  0.00  0.99  0.01  0.00  0.00  0.54  0.00
  YS02001762YS02001759    1.00   0.00  0.00  0.00  1.00  0.00  0.00  0.00  0.04  0.00
  YS02001765YS02001762    1.00   0.00  0.00  0.00  1.00  0.00  0.00  0.00  0.64  0.00
  YS02001767YS02001765    1.00   0.00  0.00  0.00  1.00  0.00  0.00  0.00  0.01  0.00
  YS02001770YS02001767    1.00   0.00  0.00  0.00  1.00  0.00  0.00  0.00  0.00  0.00
  YS02001774YS02001770    1.00   0.00  0.13  0.00  0.71  0.00  0.16  0.00  0.02  0.00
  YS02001779YS02001774    1.00   0.00  0.00  0.00  1.00  0.00  0.00  0.00  0.75  0.00
  YS02001783YS02001784    1.00   0.00  0.17  0.00  0.83  0.00  0.00  0.00  0.55  0.00
  YS02001784YS02001785    1.00   0.00  0.00  0.00  1.00  0.00  0.00  0.00  0.16  0.00
  YS02001786YS02001788    1.00   0.00  0.00  0.00  0.79  0.21  0.00  0.00  0.00  0.00
  YS02001788YS02001790    1.00   0.00  0.00  0.00  0.21  0.79  0.00  0.00  0.79  0.00
  YS02001790YS02001791    1.00   0.00  0.00  0.00  0.01  0.99  0.00  0.00  0.16  0.00
  YS02001791YS02001793    1.00   0.00  0.00  0.00  0.00  1.00  0.00  0.00  0.01  0.00
  YS02001793JiankangQianchi    1.00   0.00  0.00  0.00  0.96  0.04  0.00  0.00  0.96  0.00
  YS02001882YS02001884    1.00   0.15  0.01  0.00  0.85  0.00  0.00  0.00  0.00  0.00
  YS02001884YS02001887    1.00   0.06  0.05  0.00  0.89  0.00  0.00  0.00  0.00  0.00
  YS02001887YS02001890    1.00   0.00  0.00  0.00  0.97  0.00  0.03  0.00  0.00  0.00
  YS02001890YS02001895    1.00   0.00  0.15  0.00  0.84  0.00  0.00  0.00  0.00  0.00
  YS02001895YS02001898    1.00   0.16  0.00  0.00  0.83  0.00  0.02  0.00  0.00  0.00
  YS02001898YS02001901    1.00   0.16  0.00  0.00  0.84  0.00  0.00  0.00  0.01  0.00
  YS02001901YS02001904    1.00   0.16  0.00  0.00  0.84  0.00  0.00  0.00  0.00  0.00
  YS02001904YS02001907    1.00   0.00  0.15  0.00  0.84  0.00  0.00  0.00  0.00  0.00
  YS02001907YS02006553    1.00   0.00  0.02  0.00  0.98  0.00  0.00  0.00  0.00  0.00
  YS02001910YS02001907    1.00   0.00  0.00  0.00  0.97  0.00  0.00  0.03  0.12  0.00
  YS02001915YS02001910    1.00   0.00  0.00  0.00  0.97  0.03  0.00  0.00  0.13  0.00
  YS02001918YS02001915    1.00   0.00  0.01  0.00  0.98  0.02  0.00  0.00  0.72  0.00
  YS02001920YS02001918    1.00   0.00  0.01  0.00  0.99  0.00  0.00  0.00  0.00  0.00
  YS02001923YS02001920    1.00   0.00  0.00  0.00  1.00  0.00  0.00  0.00  0.91  0.00
  YS02001926YS02001923    1.00   0.00  0.07  0.00  0.08  0.00  0.85  0.00  0.00  0.00
  YS02001929YS02001926    1.00   0.00  0.13  0.00  0.87  0.00  0.00  0.00  0.81  0.00
  YS02006553YS02006556    1.00   0.01  0.00  0.00  0.99  0.00  0.00  0.00  0.03  0.00
  YS02006556YS02006558    1.00   0.00  0.00  0.00  1.00  0.00  0.00  0.00  0.00  0.00
  YS02006558YS02006561    1.00   0.17  0.00  0.00  0.07  0.76  0.00  0.00  0.18  0.00
  YS02006561YS02001783    1.00   0.17  0.00  0.00  0.11  0.73  0.00  0.00  0.67  0.00
  YS02163301YS02001633    1.00   0.00  0.15  0.00  0.85  0.00  0.00  0.00  0.00  0.00
  YS02163601YS02164001    1.00   0.00  0.08  0.00  0.92  0.00  0.00  0.00  0.00  0.00
  YS02164001YS02001641    1.00   0.01  0.07  0.00  0.92  0.00  0.00  0.00  0.05  0.00
  
  
  *************************
  Conduit Surcharge Summary
  *************************
  
  ----------------------------------------------------------------------------
                                                           Hours        Hours 
                         --------- Hours Full --------   Above Full   Capacity
  Conduit                Both Ends  Upstream  Dnstream   Normal Flow   Limited
  ----------------------------------------------------------------------------
  WS02003072WS02003073        0.01      0.01      0.01      1.35         0.01
  WS02004404WS02004405        0.01      0.01      0.01      4.15         0.01
  WS02004405WS02004406        0.01      0.01      0.01      0.98         0.01
  WS02006109WS02006110        1.03      1.03      2.66      1.12         0.01
  WS02006110WS02006113        0.01      0.01      2.59      0.01         0.01
  WS02006111WS02006112        0.01      0.01      3.08      0.01         0.01
  WS02006112WS02006115        0.01      0.01      1.03      0.01         0.01
  WS02006228WS02006109        2.52      2.66      2.52      3.39         2.52
  WS02006229WS02006228        2.50      2.53      2.50      3.02         2.49
  WS02006230WS02006229        2.79      2.96      2.79      4.59         2.79
  WS02006231WS02006230        1.05      1.05      1.18      4.36         0.01
  WS02006232WS02006231        1.14      1.14      2.66      1.22         0.01
  WS02006234WS02006232        2.43      2.43      2.66      1.18         1.19
  WS02006235WS02006234        1.53      1.53      2.50      4.19         0.02
  WS02006238WS02006235        2.55      2.55      2.68      0.01         0.01
  WS02006239WS02006238        2.60      2.66      2.60      2.77         2.36
  WS02006240WS02006239        2.52      2.57      2.52      2.75         2.18
  WS02006242WS02006240        2.54      2.54      2.74      3.06         0.01
  WS02006243WS02006242        2.51      2.51      2.68      0.01         0.04
  WS02006245WS02006243        2.49      2.51      2.50      1.70         1.52
  WS02006247WS02006245        2.49      2.54      2.49      3.95         2.48
  WS02006248WS02006247        2.49      2.49      2.52      0.01         0.04
  WS02006249WS02006248        2.46      2.46      2.49      3.92         0.01
  WS02006251WS02006249        2.48      2.49      2.49      2.86         2.42
  WS02006252WS02006251        2.92      2.92      2.93      2.93         0.01
  WS02006256WS02006235        4.22      4.25      5.63      1.52         0.01
  YS02001580YS02001583        0.78      0.78      0.85      0.01         0.01
  YS02001583YS02001586        0.79      0.79      0.96      0.01         0.01
  YS02001586YS02001590        0.97      0.97      1.05      0.01         0.01
  YS02001590YS02001593        1.06      1.06      1.07      1.11         0.01
  YS02001593YS02001596        1.06      1.06      1.19      0.01         0.01
  YS02001596YS02001600        1.24      1.24      1.37      0.01         0.01
  YS02001600YS02001601        1.44      1.44      1.65      0.01         0.01
  YS02001601YS02001602        1.57      1.57      1.68      1.35         0.01
  YS02001602YS02001605        1.53      1.53      1.57      2.38         0.01
  YS02001605YS02001607        1.50      1.53      1.50      1.62         1.50
  YS02001607YS02001610        1.06      1.06      1.09      0.01         0.01
  YS02001610YS02001613        1.06      1.06      1.09      0.01         0.01
  YS02001613YS02001616        1.01      1.01      1.06      0.01         0.01
  YS02001616YS02001619        1.00      1.00      1.01      0.01         0.04
  YS02001619YS02001622        0.99      1.00      0.99      1.00         0.91
  YS02001622YS02001625        0.99      0.99      1.20      0.01         0.01
  YS02001625YS02001629        0.94      0.94      1.20      0.01         0.01
  YS02001629YS02163301        1.20      1.20      1.22      0.04         0.12
  YS02001633YS02163601        1.24      1.24      1.28      0.28         0.28
  YS02001641YS02001644        1.17      1.19      1.17      1.71         1.15
  YS02001644YS02001647        0.94      0.94      1.17      0.04         0.01
  YS02001647YS02001649        0.94      0.94      1.10      0.01         0.01
  YS02001649YS02001757        1.10      1.10      1.18      0.06         0.03
  YS02001652YS02001649        0.89      0.89      1.10      0.01         0.01
  YS02001655YS02001652        0.64      0.64      0.87      0.01         0.01
  YS02001658YS02001655        0.32      0.32      0.64      0.01         0.01
  YS02001661YS02001658        0.10      0.10      0.32      0.01         0.01
  YS02001664YS02001661        0.01      0.01      0.15      0.01         0.01
  YS02001745YS02001748        0.01      0.01      0.24      0.01         0.01
  YS02001748YS02001751        0.29      0.29      0.47      0.01         0.01
  YS02001751YS02001754        0.47      0.47      0.75      0.01         0.01
  YS02001754YS02001757        0.82      0.82      1.18      0.01         0.01
  YS02001757CaochengTiaoxuchi        1.16      1.18      2.17      0.43         0.38
  YS02001759YS02001757        1.08      1.08      1.18      0.01         0.03
  YS02001762YS02001759        1.04      1.04      1.08      0.01         0.02
  YS02001765YS02001762        0.99      0.99      1.04      0.01         0.01
  YS02001767YS02001765        0.94      0.94      0.99      0.01         0.02
  YS02001770YS02001767        0.93      0.93      0.94      0.65         0.61
  YS02001774YS02001770        0.90      0.90      1.01      0.01         0.01
  YS02001779YS02001774        0.75      0.75      1.01      0.01         0.01
  YS02001783YS02001784        0.64      0.66      0.64      0.83         0.64
  YS02001784YS02001785        0.52      0.64      0.52      1.13         0.52
  YS02001786YS02001788        0.01      0.52      0.01      0.96         0.01
  YS02001790YS02001791        0.01      0.01      0.01      0.62         0.01
  YS02001793JiankangQianchi        0.01      0.01      7.70      0.01         0.01
  YS02001882YS02001884        0.60      0.60      0.61      0.01         0.01
  YS02001884YS02001887        0.64      0.64      0.65      0.01         0.01
  YS02001887YS02001890        0.67      0.67      0.68      0.17         0.01
  YS02001890YS02001895        0.59      0.59      0.70      0.01         0.01
  YS02001895YS02001898        0.58      0.58      0.59      0.01         0.01
  YS02001898YS02001901        0.59      0.59      0.64      0.01         0.01
  YS02001901YS02001904        0.63      0.63      0.64      0.01         0.01
  YS02001904YS02001907        0.63      0.63      0.93      0.01         0.01
  YS02001907YS02006553        1.14      1.14      1.24      0.01         0.01
  YS02001910YS02001907        0.69      0.69      0.90      0.01         0.01
  YS02001915YS02001910        0.60      0.60      0.70      0.01         0.01
  YS02001918YS02001915        0.50      0.50      0.60      0.01         0.01
  YS02001920YS02001918        0.50      0.50      0.52      0.01         0.01
  YS02001923YS02001920        0.45      0.45      0.52      0.01         0.01
  YS02001926YS02001923        0.17      0.17      0.19      0.01         0.01
  YS02001929YS02001926        0.01      0.01      0.19      0.01         0.01
  YS02006553YS02006556        0.80      0.80      0.93      0.01         0.01
  YS02006556YS02006558        0.86      0.86      0.95      0.01         0.01
  YS02006558YS02006561        0.55      0.78      0.55      1.06         0.55
  YS02006561YS02001783        0.47      0.47      0.66      0.01         0.01
  YS02163301YS02001633        1.22      1.22      1.26      0.01         0.01
  YS02163601YS02164001        1.19      1.19      1.28      0.06         0.01
  YS02164001YS02001641        1.19      1.19      1.19      0.81         0.77
  
  
  ***************
  Pumping Summary
  ***************
  
  ---------------------------------------------------------------------------------------------------------
                                                  Min       Avg       Max     Total     Power    % Time Off
                        Percent   Number of      Flow      Flow      Flow    Volume     Usage    Pump Curve
  Pump                 Utilized   Start-Ups       LPS       LPS       LPS  10^6 ltr     Kw-hr    Low   High
  ---------------------------------------------------------------------------------------------------------
  CC-R1                   20.81           3      0.00    683.00    683.00     4.094     78.13    0.0    9.1
  CC-R2                   18.86           3      0.00    683.00    683.00     3.710     71.08    0.0   10.1
  CC-S1                   46.85           7      0.00    200.00    200.00     2.699     15.67    0.0    0.0
  CC-S2                   39.61          12      0.00    200.00    200.00     2.282     13.20    0.0    0.0
  JK-R1                    8.53          16      0.00   1000.00   1000.00     2.457     26.63    0.0    0.0
  JK-R2                    1.99           7      0.00   1000.00   1000.00     0.572      5.45    0.0    0.0
  JK-S                    18.89          14      0.00    300.00    300.00     1.632     25.34    0.0    0.0
  

  Analysis begun on:  Wed Jan 15 10:34:14 2025
  Analysis ended on:  Wed Jan 15 10:34:16 2025
  Total elapsed time: 00:00:02