
  EPA STORM WATER MANAGEMENT MODEL - VERSION 5.2 (Build 5.2.4)
  PYSWMM TOOLKIT API - VERSION v1.0 (2023-11-27)
  ------------------------------------------------------------

  WARNING 04: minimum elevation drop used for Conduit WS02004404WS02004405
  WARNING 03: negative offset ignored for Link YS02001904YS02001907
  
  ****************
  Analysis Options
  ****************
  Flow Units ............... LPS
  Process Models:
    Rainfall/Runoff ........ YES
    RDII ................... NO
    Snowmelt ............... NO
    Groundwater ............ NO
    Flow Routing ........... YES
    Ponding Allowed ........ NO
    Water Quality .......... NO
  Infiltration Method ...... HORTON
  Flow Routing Method ...... DYNWAVE
  Surcharge Method ......... EXTRAN
  Starting Date ............ 08/28/2015 08:00:00
  Ending Date .............. 08/28/2015 16:00:00
  Antecedent Dry Days ...... 8.0
  Report Time Step ......... 00:01:00
  Wet Time Step ............ 00:01:00
  Dry Time Step ............ 00:01:00
  Routing Time Step ........ 30.00 sec
  Variable Time Step ....... YES
  Maximum Trials ........... 8
  Number of Threads ........ 4
  Head Tolerance ........... 0.001500 m
  
  
  **************************        Volume         Depth
  Runoff Quantity Continuity     hectare-m            mm
  **************************     ---------       -------
  Total Precipitation ......         3.574       107.739
  Evaporation Loss .........         0.000         0.000
  Infiltration Loss ........         0.106         3.182
  Surface Runoff ...........         3.436       103.580
  Final Storage ............         0.033         0.999
  Continuity Error (%) .....        -0.019
  
  
  **************************        Volume        Volume
  Flow Routing Continuity        hectare-m      10^6 ltr
  **************************     ---------     ---------
  Dry Weather Inflow .......         0.025         0.248
  Wet Weather Inflow .......         3.435        34.353
  Groundwater Inflow .......         0.000         0.000
  RDII Inflow ..............         0.000         0.000
  External Inflow ..........         0.083         0.825
  External Outflow .........         2.221        22.209
  Flooding Loss ............         1.482        14.815
  Evaporation Loss .........         0.000         0.000
  Exfiltration Loss ........         0.000         0.000
  Initial Stored Volume ....         0.243         2.431
  Final Stored Volume ......         0.094         0.942
  Continuity Error (%) .....        -0.289
  
  
  *************************
  Highest Continuity Errors
  *************************
  Node YS02001884 (4.87%)
  Node YS02001583 (-4.38%)
  Node WS02006256 (-3.81%)
  
  
  ***************************
  Time-Step Critical Elements
  ***************************
  Link WS02006238WS02006235 (23.19%)
  Link WS02004404WS02004405 (20.79%)
  Link WS02003066WSF200 (11.12%)
  Link YS02001791YS02001793 (9.91%)
  Link YS02001793JiankangQianchi (6.23%)
  
  
  ********************************
  Highest Flow Instability Indexes
  ********************************
  Link WS02006252WS02006251 (41)
  Link WS02006113WS02006111 (37)
  Link YS02001602YS02001605 (27)
  Link YS02001607YS02001610 (25)
  Link WS02006238WS02006235 (25)
  
  
  *********************************
  Most Frequent Nonconverging Nodes
  *********************************
  Node CC-1 (41.35%)
  Node CC-2 (41.35%)
  Node JK-1 (41.35%)
  Node JK-2 (41.35%)
  Node WSC (41.35%)
  
  
  *************************
  Routing Time Step Summary
  *************************
  Minimum Time Step           :     0.02 sec
  Average Time Step           :     2.82 sec
  Maximum Time Step           :     6.43 sec
  % of Time in Steady State   :     0.00
  Average Iterations per Step :     4.83
  % of Steps Not Converging   :    41.35
  Time Step Frequencies       :
     30.000 - 13.228 sec      :     0.00 %
     13.228 -  5.833 sec      :    14.65 %
      5.833 -  2.572 sec      :    29.64 %
      2.572 -  1.134 sec      :    37.38 %
      1.134 -  0.500 sec      :    18.32 %
  
  
  ***************************
  Subcatchment Runoff Summary
  ***************************
  
  ------------------------------------------------------------------------------------------------------------------------------
                            Total      Total      Total      Total     Imperv       Perv      Total       Total     Peak  Runoff
                           Precip      Runon       Evap      Infil     Runoff     Runoff     Runoff      Runoff   Runoff   Coeff
  Subcatchment                 mm         mm         mm         mm         mm         mm         mm    10^6 ltr      LPS
  ------------------------------------------------------------------------------------------------------------------------------
  sub60                    107.74       0.00       0.00       1.90      93.61      11.03     104.65        1.38   865.91   0.971
  sub61                    107.74       0.00       0.00       2.76      88.30      15.56     103.86        1.91  1205.61   0.964
  sub62                    107.74       0.00       0.00       1.27      97.84       7.36     105.19        2.88  1720.14   0.976
  sub63                    107.74       0.00       0.00       5.09      75.53      26.16     101.69        2.31  1390.90   0.944
  sub64                    107.74       0.00       0.00       2.57      90.38      13.59     103.96        2.50  1428.88   0.965
  sub65                    107.74       0.00       0.00       2.23      92.48      11.78     104.26        2.87  1601.77   0.968
  sub66                    107.74       0.00       0.00       6.32      75.42      24.93     100.34        4.68  2204.78   0.931
  sub67                    107.74       0.00       0.00       1.21      97.88       7.41     105.29        1.96  1294.17   0.977
  sub68                    107.74       0.00       0.00       2.28      91.47      12.80     104.28        2.87  1756.94   0.968
  sub69                    107.74       0.00       0.00       2.07      91.47      14.10     105.57        3.91  2128.94   0.980
  sub70                    107.74       0.00       0.00       6.91      70.94      29.72     100.66        2.91  1240.64   0.934
  sub71                    107.74       0.00       0.00       1.30      97.79       7.32     105.11        2.75  1541.45   0.976
  sub72                    107.74       0.00       0.00       1.16      98.79       6.39     105.18        1.45   757.72   0.976
  
  
  ******************
  Node Depth Summary
  ******************
  
  ---------------------------------------------------------------------------------
                                 Average  Maximum  Maximum  Time of Max    Reported
                                   Depth    Depth      HGL   Occurrence   Max Depth
  Node                 Type       Meters   Meters   Meters  days hr:min      Meters
  ---------------------------------------------------------------------------------
  WS02003060           JUNCTION     0.24     0.38     5.31     0  03:16        0.38
  WS02003066           JUNCTION     0.20     0.30     5.85     0  03:16        0.30
  WS02003067           JUNCTION     0.50     0.70     6.02     0  03:15        0.70
  WS02003069           JUNCTION     0.27     0.43     5.01     0  03:17        0.43
  WS02003072           JUNCTION     0.33     0.50     4.87     0  03:17        0.50
  WS02003073           JUNCTION     0.19     0.30     4.36     0  03:18        0.30
  WS02004401           JUNCTION     0.61     0.85     6.85     0  03:14        0.85
  WS02004402           JUNCTION     0.64     0.88     6.84     0  03:13        0.88
  WS02004403           JUNCTION     0.66     0.89     6.82     0  03:14        0.89
  WS02004404           JUNCTION     0.73     0.96     6.81     0  03:14        0.96
  WS02004405           JUNCTION     0.72     0.95     6.80     0  03:14        0.95
  WS02004406           JUNCTION     0.73     0.96     6.79     0  03:14        0.95
  WS02004407           JUNCTION     0.18     0.30     6.61     0  03:15        0.30
  WS02004409           JUNCTION     0.41     0.67     6.44     0  03:15        0.67
  WS02004410           JUNCTION     0.43     0.68     6.40     0  03:15        0.68
  WS02004411           JUNCTION     0.45     0.69     6.37     0  03:15        0.69
  WS02004412           JUNCTION     0.47     0.70     6.34     0  03:16        0.70
  WS02004413           JUNCTION     0.62     0.86     6.33     0  03:16        0.86
  WS02006109           JUNCTION     0.70     1.54     8.16     0  01:38        1.13
  WS02006110           JUNCTION     0.69     1.73     8.32     0  01:38        1.12
  WS02006111           JUNCTION     0.19     0.29     6.99     0  03:12        0.29
  WS02006112           JUNCTION     0.77     1.11     6.99     0  03:20        1.06
  WS02006113           JUNCTION     0.29     0.46     7.35     0  03:05        0.46
  WS02006115           JUNCTION     0.50     0.75     6.89     0  03:13        0.75
  WS02006116           JUNCTION     0.58     0.83     6.87     0  03:13        0.83
  WS02006228           JUNCTION     0.70     1.63     8.28     0  03:01        1.14
  WS02006229           JUNCTION     0.68     1.70     8.39     0  03:01        1.16
  WS02006230           JUNCTION     0.70     2.13     8.87     0  03:01        1.29
  WS02006231           JUNCTION     0.49     2.24     9.36     0  02:46        1.98
  WS02006232           JUNCTION     0.63     2.18     9.22     0  01:57        2.18
  WS02006234           JUNCTION     0.57     1.96     9.12     0  01:39        1.96
  WS02006235           JUNCTION     0.62     2.00     9.16     0  01:39        2.00
  WS02006238           JUNCTION     0.65     2.15     9.29     0  01:42        2.15
  WS02006239           JUNCTION     0.62     2.03     9.24     0  01:42        2.03
  WS02006240           JUNCTION     0.59     2.10     9.39     0  01:42        2.10
  WS02006242           JUNCTION     0.66     1.55     8.82     0  01:39        1.55
  WS02006243           JUNCTION     0.59     1.48     8.90     0  01:42        1.48
  WS02006245           JUNCTION     0.59     1.56     9.04     0  01:42        1.56
  WS02006247           JUNCTION     0.61     1.47     8.97     0  01:42        1.47
  WS02006248           JUNCTION     0.58     1.10     8.69     0  01:37        1.10
  WS02006249           JUNCTION     0.61     1.09     8.69     0  01:36        1.09
  WS02006251           JUNCTION     0.61     1.56     9.23     0  01:37        1.32
  WS02006252           JUNCTION     0.39     1.50     9.74     0  00:00        0.88
  WS02006256           JUNCTION     1.22     2.35     9.28     0  00:00        2.35
  WSF200               JUNCTION     0.17     0.29     5.52     0  03:15        0.29
  YS02001580           JUNCTION     0.21     1.05     9.59     0  01:44        0.80
  YS02001583           JUNCTION     0.24     1.01     9.50     0  01:44        0.85
  YS02001586           JUNCTION     0.38     1.13     9.30     0  01:44        1.13
  YS02001590           JUNCTION     0.50     1.40     9.26     0  01:44        1.38
  YS02001593           JUNCTION     0.44     1.33     9.19     0  01:44        1.29
  YS02001596           JUNCTION     0.59     1.68     9.10     0  01:44        1.66
  YS02001600           JUNCTION     0.69     1.87     9.00     0  01:44        1.87
  YS02001601           JUNCTION     0.88     2.06     8.90     0  01:43        2.06
  YS02001602           JUNCTION     0.77     1.87     8.77     0  01:48        1.87
  YS02001605           JUNCTION     0.71     1.78     8.68     0  01:57        1.78
  YS02001607           JUNCTION     0.66     1.65     8.50     0  01:57        1.65
  YS02001610           JUNCTION     0.70     1.68     8.48     0  01:49        1.68
  YS02001613           JUNCTION     0.66     1.67     8.51     0  01:57        1.67
  YS02001616           JUNCTION     0.60     1.61     8.52     0  01:56        1.61
  YS02001619           JUNCTION     0.58     1.61     8.54     0  01:57        1.61
  YS02001622           JUNCTION     0.56     1.59     8.49     0  02:07        1.58
  YS02001625           JUNCTION     0.80     1.78     8.38     0  01:49        1.78
  YS02001629           JUNCTION     0.71     1.85     8.40     0  01:50        1.85
  YS02001633           JUNCTION     0.78     2.08     8.53     0  01:57        2.08
  YS02001641           JUNCTION     0.74     1.97     8.41     0  01:57        1.97
  YS02001644           JUNCTION     0.72     1.92     8.35     0  01:53        1.92
  YS02001647           JUNCTION     0.51     1.80     8.41     0  01:55        1.78
  YS02001649           JUNCTION     0.57     2.04     8.43     0  02:00        2.03
  YS02001652           JUNCTION     0.45     1.93     8.52     0  02:00        1.91
  YS02001655           JUNCTION     0.35     1.90     8.75     0  02:26        1.76
  YS02001658           JUNCTION     0.26     1.58     8.72     0  02:01        1.58
  YS02001661           JUNCTION     0.23     1.40     8.80     0  02:01        1.40
  YS02001664           JUNCTION     0.11     0.96     8.88     0  02:01        0.95
  YS02001745           JUNCTION     0.12     0.97     8.49     0  02:00        0.96
  YS02001748           JUNCTION     0.23     1.62     8.70     0  01:55        1.38
  YS02001751           JUNCTION     0.30     1.92     8.80     0  01:55        1.55
  YS02001754           JUNCTION     0.40     2.12     8.73     0  01:55        1.79
  YS02001757           JUNCTION     0.59     2.16     8.42     0  01:55        2.11
  YS02001759           JUNCTION     0.53     2.17     8.53     0  02:00        2.17
  YS02001762           JUNCTION     0.52     2.11     8.51     0  02:00        2.11
  YS02001765           JUNCTION     0.50     2.06     8.51     0  01:55        2.05
  YS02001767           JUNCTION     0.49     2.00     8.49     0  01:55        1.99
  YS02001770           JUNCTION     0.50     1.95     8.44     0  01:52        1.95
  YS02001774           JUNCTION     0.56     2.03     8.45     0  01:52        2.00
  YS02001779           JUNCTION     0.38     1.68     8.37     0  01:51        1.68
  YS02001783           JUNCTION     0.40     1.28     7.42     0  02:00        1.26
  YS02001784           JUNCTION     0.40     1.15     7.22     0  02:00        1.14
  YS02001786           JUNCTION     0.32     0.90     6.93     0  02:00        0.88
  YS02001788           JUNCTION     0.24     0.63     6.60     0  02:00        0.62
  YS02001790           JUNCTION     0.28     0.73     6.38     0  01:58        0.71
  YS02001791           JUNCTION     0.17     0.44     5.91     0  01:59        0.44
  YS02001793           JUNCTION     0.09     0.25     5.08     0  02:06        0.24
  YS02001882           JUNCTION     0.49     1.83     8.55     0  01:50        1.83
  YS02001884           JUNCTION     0.58     1.93     8.55     0  01:50        1.93
  YS02001887           JUNCTION     0.65     1.95     8.49     0  01:50        1.95
  YS02001890           JUNCTION     0.68     1.81     8.32     0  01:50        1.81
  YS02001895           JUNCTION     0.46     1.57     8.32     0  02:00        1.57
  YS02001898           JUNCTION     0.47     1.57     8.30     0  01:50        1.57
  YS02001901           JUNCTION     0.57     1.68     8.29     0  01:57        1.68
  YS02001904           JUNCTION     0.55     1.65     8.28     0  01:49        1.64
  YS02001907           JUNCTION     0.86     1.96     8.25     0  01:49        1.96
  YS02001910           JUNCTION     0.68     2.01     8.52     0  02:00        2.01
  YS02001915           JUNCTION     0.51     2.00     8.72     0  01:59        2.00
  YS02001918           JUNCTION     0.33     1.81     8.88     0  01:50        1.71
  YS02001920           JUNCTION     0.41     2.10     9.11     0  01:50        1.81
  YS02001923           JUNCTION     0.27     2.03     9.29     0  01:50        1.58
  YS02001926           JUNCTION     0.28     1.90     9.35     0  01:50        1.44
  YS02001929           JUNCTION     0.18     1.78     9.47     0  01:50        1.23
  YS02006553           JUNCTION     0.86     2.02     8.31     0  02:00        2.02
  YS02006556           JUNCTION     0.83     2.08     8.39     0  02:00        2.08
  YS02006558           JUNCTION     0.87     2.17     8.43     0  02:00        2.17
  YS02006561           JUNCTION     0.26     0.96     7.62     0  02:00        0.92
  YS02163301           JUNCTION     0.73     1.96     8.48     0  01:57        1.96
  YS02163601           JUNCTION     0.80     2.08     8.48     0  01:57        2.08
  YS02164001           JUNCTION     0.73     2.00     8.45     0  01:57        2.00
  CC-1                 OUTFALL      0.00     0.00     0.00     0  00:00        0.00
  CC-2                 OUTFALL      0.00     0.00     0.00     0  00:00        0.00
  JK-1                 OUTFALL      0.00     0.00     0.00     0  00:00        0.00
  JK-2                 OUTFALL      0.00     0.00     0.00     0  00:00        0.00
  WSC                  OUTFALL      0.19     0.30     0.97     0  03:18        0.30
  CC-storage           STORAGE      0.61     1.55     7.05     0  02:44        1.55
  JK-storage           STORAGE      0.20     2.99     3.79     0  00:00        0.68
  
  
  *******************
  Node Inflow Summary
  *******************
  
  -------------------------------------------------------------------------------------------------
                                  Maximum  Maximum                  Lateral       Total        Flow
                                  Lateral    Total  Time of Max      Inflow      Inflow     Balance
                                   Inflow   Inflow   Occurrence      Volume      Volume       Error
  Node                 Type           LPS      LPS  days hr:min    10^6 ltr    10^6 ltr     Percent
  -------------------------------------------------------------------------------------------------
  WS02003060           JUNCTION     16.53   549.89     0  03:16       0.471        5.53       0.037
  WS02003066           JUNCTION      0.00   533.32     0  03:16           0        5.06       0.029
  WS02003067           JUNCTION      0.00   533.36     0  03:16           0        5.06       0.081
  WS02003069           JUNCTION      0.32   550.39     0  03:16     0.00912        5.53       0.070
  WS02003072           JUNCTION      0.00   550.36     0  03:17           0        5.53       0.128
  WS02003073           JUNCTION      1.82   551.94     0  03:18      0.0519        5.57       0.097
  WS02004401           JUNCTION      0.00   536.79     0  03:13           0        5.16       0.200
  WS02004402           JUNCTION      0.00   536.84     0  03:13           0        5.15       0.203
  WS02004403           JUNCTION      0.00   536.59     0  03:14           0        5.14       0.198
  WS02004404           JUNCTION      0.16   535.67     0  03:14     0.00462        5.14       0.172
  WS02004405           JUNCTION      0.04   536.16     0  03:14     0.00109        5.13       0.237
  WS02004406           JUNCTION      0.00   536.69     0  03:14           0        5.12       0.410
  WS02004407           JUNCTION      0.00   535.76     0  03:14           0         5.1       0.022
  WS02004409           JUNCTION      0.00   535.41     0  03:15           0        5.09       0.052
  WS02004410           JUNCTION      0.00   535.01     0  03:15           0        5.09       0.087
  WS02004411           JUNCTION      0.00   534.37     0  03:15           0        5.09       0.109
  WS02004412           JUNCTION      0.00   533.65     0  03:15           0        5.08       0.145
  WS02004413           JUNCTION      0.00   533.64     0  03:16           0        5.07       0.269
  WS02006109           JUNCTION      1.23   563.24     0  01:38      0.0351        5.21       0.202
  WS02006110           JUNCTION      0.00   564.15     0  01:38           0         5.2       0.100
  WS02006111           JUNCTION      0.00   561.64     0  03:05           0        5.19       0.007
  WS02006112           JUNCTION      0.00   544.12     0  03:12           0        5.19       0.403
  WS02006113           JUNCTION      0.00   570.68     0  03:01           0         5.2       0.048
  WS02006115           JUNCTION      0.00   549.41     0  03:01           0        5.17       0.137
  WS02006116           JUNCTION      0.00   540.92     0  03:03           0        5.16       0.053
  WS02006228           JUNCTION      0.00   561.81     0  01:38           0        5.18       0.087
  WS02006229           JUNCTION      0.00   561.98     0  01:38           0        5.19       0.099
  WS02006230           JUNCTION     10.28   626.35     0  03:19       0.293        5.19      -0.007
  WS02006231           JUNCTION      0.00   636.36     0  03:19           0        4.89      -0.131
  WS02006232           JUNCTION      0.00   629.79     0  03:19           0         4.9       0.361
  WS02006234           JUNCTION      0.00   602.85     0  03:19           0        4.88      -0.521
  WS02006235           JUNCTION      0.00   583.60     0  01:37           0        5.02       0.358
  WS02006238           JUNCTION      0.00   424.29     0  03:00           0        3.76      -0.018
  WS02006239           JUNCTION      0.00   423.13     0  03:45           0        3.68       0.000
  WS02006240           JUNCTION      0.00   422.57     0  03:45           0        3.62       0.017
  WS02006242           JUNCTION      0.00   423.30     0  03:45           0         3.6      -0.007
  WS02006243           JUNCTION      0.00   424.70     0  03:45           0        3.58      -0.079
  WS02006245           JUNCTION      0.00   425.63     0  03:45           0        3.58       0.166
  WS02006247           JUNCTION      0.00   426.39     0  03:45           0        3.58      -0.012
  WS02006248           JUNCTION      0.00   427.43     0  03:45           0        3.59       0.084
  WS02006249           JUNCTION      0.00   467.20     0  01:32           0        3.86       0.222
  WS02006251           JUNCTION      0.08   406.84     0  03:17     0.00219        3.86      -0.039
  WS02006252           JUNCTION      0.00   400.00     0  00:00           0        3.86       0.010
  WS02006256           JUNCTION      0.00   326.21     0  02:35           0        1.99      -3.673
  WSF200               JUNCTION      0.00   533.34     0  03:16           0        5.05       0.007
  YS02001580           JUNCTION      0.00    71.87     0  01:44           0     0.00423       1.319
  YS02001583           JUNCTION      0.00   117.39     0  01:43           0      0.0156      -4.193
  YS02001586           JUNCTION   1240.64  1240.67     0  02:03        2.91        2.92       0.037
  YS02001590           JUNCTION      0.00   318.22     0  02:01           0         1.8      -0.027
  YS02001593           JUNCTION      0.00   318.07     0  01:57           0         1.8       0.010
  YS02001596           JUNCTION      0.00   317.95     0  02:18           0         1.8       0.001
  YS02001600           JUNCTION      0.00   318.17     0  02:25           0         1.8       0.018
  YS02001601           JUNCTION   2128.94  2446.39     0  02:02        3.91        5.71       0.019
  YS02001602           JUNCTION      0.00   496.71     0  01:43           0        2.87       0.019
  YS02001605           JUNCTION      0.00   496.14     0  01:43           0        2.69       0.024
  YS02001607           JUNCTION      0.00   496.68     0  01:43           0        2.69       0.077
  YS02001610           JUNCTION      0.00   954.83     0  02:03           0        3.43       0.074
  YS02001613           JUNCTION      0.00   619.07     0  02:04           0        2.63       0.060
  YS02001616           JUNCTION      0.00   618.56     0  02:04           0        2.64       0.021
  YS02001619           JUNCTION   2204.78  2204.78     0  02:03        4.68        6.57      -0.000
  YS02001622           JUNCTION      0.00  1053.91     0  02:05           0        5.61       0.002
  YS02001625           JUNCTION      0.00  1505.40     0  02:08           0        6.09       0.154
  YS02001629           JUNCTION      0.00   931.57     0  01:49           0        4.56       0.016
  YS02001633           JUNCTION   1601.97  1601.97     0  02:02        2.88        6.76       0.053
  YS02001641           JUNCTION      0.00  1368.39     0  01:50           0        6.09       0.048
  YS02001644           JUNCTION   1428.92  2338.78     0  02:02         2.5         8.6       0.040
  YS02001647           JUNCTION      0.00  1781.19     0  01:50           0        7.29       0.008
  YS02001649           JUNCTION      0.00  2027.19     0  01:49           0        9.58       0.008
  YS02001652           JUNCTION      0.00  1400.65     0  02:01           0        2.31      -0.040
  YS02001655           JUNCTION      0.15  1400.96     0  02:01     0.00439        2.31      -0.028
  YS02001658           JUNCTION      0.00  1400.41     0  02:01           0        2.31      -0.019
  YS02001661           JUNCTION      0.00  1399.35     0  02:01           0        2.31       0.020
  YS02001664           JUNCTION   1390.90  1390.90     0  02:02        2.31        2.31      -0.008
  YS02001745           JUNCTION    865.92   865.92     0  02:01        1.37        1.37       0.090
  YS02001748           JUNCTION      0.04   881.02     0  02:01     0.00128        1.38      -0.133
  YS02001751           JUNCTION      0.01   881.96     0  02:01    0.000313        1.38       0.028
  YS02001754           JUNCTION      0.26   882.73     0  02:01     0.00741        1.39      -0.080
  YS02001757           JUNCTION      0.00  3665.60     0  02:00           0        15.1       0.040
  YS02001759           JUNCTION   1205.65  1550.31     0  02:01        1.91        4.12      -0.007
  YS02001762           JUNCTION      0.00   782.74     0  02:12           0        2.21       0.006
  YS02001765           JUNCTION      0.00   782.96     0  02:12           0        2.21       0.006
  YS02001767           JUNCTION      0.54   782.23     0  01:55      0.0152        2.21       0.012
  YS02001770           JUNCTION   1720.29  1720.29     0  02:02        2.89        2.93      -0.004
  YS02001774           JUNCTION      0.00   851.93     0  02:04           0       0.633       0.184
  YS02001779           JUNCTION      0.01   851.51     0  02:05    0.000142       0.587      -0.043
  YS02001783           JUNCTION      0.00  1180.18     0  02:01           0        5.54       0.005
  YS02001784           JUNCTION      1.06  1181.30     0  02:01      0.0302        5.57       0.010
  YS02001786           JUNCTION      0.06  1181.85     0  02:01      0.0016        5.57       0.013
  YS02001788           JUNCTION      0.07  1181.52     0  02:00     0.00202        5.57       0.005
  YS02001790           JUNCTION      0.15  1189.08     0  01:59     0.00442        5.57       0.009
  YS02001791           JUNCTION      0.00  1304.80     0  01:59           0        5.57      -0.017
  YS02001793           JUNCTION      0.00  1257.50     0  01:59           0        5.57      -0.015
  YS02001882           JUNCTION      0.00    40.24     0  01:47           0      0.0145       5.205
  YS02001884           JUNCTION      0.00    37.00     0  01:47           0      0.0512       5.124
  YS02001887           JUNCTION   1294.62  1298.20     0  02:01        1.97           2       0.221
  YS02001890           JUNCTION      0.00  1299.59     0  02:01           0        1.96       0.265
  YS02001895           JUNCTION      0.00   518.48     0  01:59           0        1.58       0.112
  YS02001898           JUNCTION      0.00   518.41     0  01:59           0        1.58       0.014
  YS02001901           JUNCTION      0.00   518.69     0  01:58           0        1.58       0.224
  YS02001904           JUNCTION      0.00   518.93     0  01:59           0        1.59       0.183
  YS02001907           JUNCTION      0.00  3098.52     0  02:02           0        5.99       0.302
  YS02001910           JUNCTION      0.00  1993.09     0  02:05           0        4.21       0.172
  YS02001915           JUNCTION   1541.47  2297.34     0  02:02        2.75         4.3       0.038
  YS02001918           JUNCTION      0.00   761.84     0  02:02           0        1.57       0.012
  YS02001920           JUNCTION      2.87   761.58     0  02:02      0.0818        1.56       0.058
  YS02001923           JUNCTION      0.04   759.02     0  02:02     0.00107        1.46      -0.028
  YS02001926           JUNCTION      0.05   758.70     0  02:02     0.00149        1.45       0.012
  YS02001929           JUNCTION    757.72   757.72     0  02:03        1.45        1.45      -0.030
  YS02006553           JUNCTION      0.00   794.71     0  02:27           0        3.09       0.391
  YS02006556           JUNCTION      0.00   794.77     0  02:27           0         3.1       0.266
  YS02006558           JUNCTION   1757.82  1757.82     0  02:02        2.89        5.77       0.059
  YS02006561           JUNCTION      0.00  1179.28     0  02:01           0        5.54      -0.001
  YS02163301           JUNCTION      0.00   932.11     0  01:49           0        4.56       0.035
  YS02163601           JUNCTION      0.11  1364.30     0  01:49     0.00313        6.08       0.083
  YS02164001           JUNCTION      0.00  1363.89     0  01:49           0        6.08       0.041
  CC-1                 OUTFALL       0.00   683.00     0  00:00           0        6.44       0.000
  CC-2                 OUTFALL       0.00   683.00     0  00:00           0        6.44       0.000
  JK-1                 OUTFALL       0.00  1000.00     0  00:00           0        1.88       0.000
  JK-2                 OUTFALL       0.00  1000.00     0  00:00           0        1.88       0.000
  WSC                  OUTFALL       0.00   551.41     0  03:18           0        5.57       0.000
  CC-storage           STORAGE       0.00  3664.98     0  02:00           0        17.3      -0.281
  JK-storage           STORAGE       0.00  1348.24     0  02:20           0        5.73      -0.313
  
  
  **********************
  Node Surcharge Summary
  **********************
  
  Surcharging occurs when water rises above the top of the highest conduit.
  ---------------------------------------------------------------------
                                               Max. Height   Min. Depth
                                   Hours       Above Crown    Below Rim
  Node                 Type      Surcharged         Meters       Meters
  ---------------------------------------------------------------------
  WS02006109           JUNCTION        2.37          0.721        1.099
  WS02006110           JUNCTION        0.48          0.824        1.026
  WS02006112           JUNCTION        1.55          0.111        1.569
  WS02006228           JUNCTION        2.36          0.798        1.402
  WS02006229           JUNCTION        2.39          0.897        1.553
  WS02006230           JUNCTION        0.59          1.049        0.521
  WS02006231           JUNCTION        1.32          1.530        0.000
  WS02006232           JUNCTION        2.46          1.480        0.000
  WS02006234           JUNCTION        1.88          1.240        0.000
  WS02006235           JUNCTION        2.10          1.290        0.000
  WS02006238           JUNCTION        2.32          1.430        0.000
  WS02006239           JUNCTION        2.33          1.290        0.000
  WS02006240           JUNCTION        2.39          1.390        0.000
  WS02006242           JUNCTION        2.48          0.820        0.000
  WS02006243           JUNCTION        2.41          0.770        0.000
  WS02006245           JUNCTION        2.41          0.850        0.000
  WS02006247           JUNCTION        2.42          0.760        0.000
  WS02006248           JUNCTION        2.39          0.380        0.000
  WS02006249           JUNCTION        2.41          0.390        0.000
  WS02006251           JUNCTION        1.76          0.531        0.649
  WS02006252           JUNCTION        2.68          1.100        0.000
  WS02006256           JUNCTION        5.76          2.050        0.000
  YS02001580           JUNCTION        1.04          0.450        0.000
  YS02001583           JUNCTION        1.05          0.366        0.134
  YS02001586           JUNCTION        1.19          0.510        0.000
  YS02001590           JUNCTION        1.29          0.750        0.000
  YS02001593           JUNCTION        1.29          0.709        0.131
  YS02001596           JUNCTION        1.42          0.953        0.117
  YS02001600           JUNCTION        1.55          1.190        0.000
  YS02001601           JUNCTION        1.83          1.440        0.000
  YS02001602           JUNCTION        1.74          1.270        0.000
  YS02001605           JUNCTION        1.70          1.180        0.000
  YS02001607           JUNCTION        1.25          0.648        0.032
  YS02001610           JUNCTION        1.28          0.680        0.000
  YS02001613           JUNCTION        1.24          0.672        0.028
  YS02001616           JUNCTION        1.18          0.610        0.000
  YS02001619           JUNCTION        1.17          0.610        0.000
  YS02001622           JUNCTION        1.16          0.585        0.035
  YS02001625           JUNCTION        1.38          0.780        0.000
  YS02001629           JUNCTION        1.08          0.470        0.000
  YS02001633           JUNCTION        1.40          1.060        0.000
  YS02001641           JUNCTION        1.32          0.968        0.132
  YS02001644           JUNCTION        1.29          0.920        0.000
  YS02001647           JUNCTION        0.96          0.802        0.098
  YS02001649           JUNCTION        1.11          1.037        0.013
  YS02001652           JUNCTION        0.83          0.895        0.235
  YS02001655           JUNCTION        0.58          0.903        0.297
  YS02001658           JUNCTION        0.37          0.580        0.720
  YS02001661           JUNCTION        0.16          0.331        1.059
  YS02001748           JUNCTION        0.25          0.544        0.646
  YS02001751           JUNCTION        0.44          0.919        0.281
  YS02001754           JUNCTION        0.65          1.072        0.078
  YS02001757           JUNCTION        1.18          1.157        0.053
  YS02001759           JUNCTION        1.05          1.170        0.040
  YS02001762           JUNCTION        1.02          1.106        0.044
  YS02001765           JUNCTION        0.95          1.061        0.039
  YS02001767           JUNCTION        0.90          1.002        0.028
  YS02001770           JUNCTION        0.86          0.920        0.000
  YS02001774           JUNCTION        0.99          1.027        0.023
  YS02001779           JUNCTION        0.65          0.680        0.000
  YS02001783           JUNCTION        0.87          0.481        1.119
  YS02001784           JUNCTION        0.83          0.354        1.136
  YS02001786           JUNCTION        0.69          0.099        1.331
  YS02001882           JUNCTION        0.79          0.830        0.000
  YS02001884           JUNCTION        0.80          0.870        0.000
  YS02001887           JUNCTION        0.85          0.902        0.048
  YS02001890           JUNCTION        0.87          0.760        0.000
  YS02001895           JUNCTION        0.78          0.574        0.176
  YS02001898           JUNCTION        0.77          0.540        0.200
  YS02001901           JUNCTION        0.83          0.685        0.185
  YS02001904           JUNCTION        0.82          0.651        0.199
  YS02001907           JUNCTION        1.18          0.950        0.000
  YS02001910           JUNCTION        0.91          1.015        0.085
  YS02001915           JUNCTION        0.79          1.000        0.000
  YS02001918           JUNCTION        0.68          0.810        0.000
  YS02001920           JUNCTION        0.69          1.101        0.039
  YS02001923           JUNCTION        0.27          0.820        0.000
  YS02001926           JUNCTION        0.32          0.900        0.000
  YS02001929           JUNCTION        0.16          0.780        0.000
  YS02006553           JUNCTION        1.22          1.024        0.166
  YS02006556           JUNCTION        1.04          1.038        0.312
  YS02006558           JUNCTION        1.02          1.066        0.334
  YS02006561           JUNCTION        0.63          0.163        0.987
  YS02163301           JUNCTION        1.38          0.961        0.069
  YS02163601           JUNCTION        1.43          1.080        0.000
  YS02164001           JUNCTION        1.33          0.996        0.104
  
  
  *********************
  Node Flooding Summary
  *********************
  
  Flooding refers to all water that overflows a node, whether it ponds or not.
  --------------------------------------------------------------------------
                                                             Total   Maximum
                                 Maximum   Time of Max       Flood    Ponded
                        Hours       Rate    Occurrence      Volume     Depth
  Node                 Flooded       LPS   days hr:min    10^6 ltr    Meters
  --------------------------------------------------------------------------
  WS02006231              0.01     60.03      0  02:46       0.000     0.000
  WS02006232              0.01     15.42      0  01:57       0.000     0.000
  WS02006234              0.01    161.80      0  01:39       0.001     0.000
  WS02006235              0.01     39.50      0  02:02       0.000     0.000
  WS02006238              0.01     23.80      0  02:02       0.000     0.000
  WS02006239              0.01      6.89      0  02:02       0.000     0.000
  WS02006240              0.01     22.38      0  03:02       0.000     0.000
  WS02006242              0.03     39.85      0  02:02       0.002     0.000
  WS02006243              0.01      6.81      0  02:02       0.000     0.000
  WS02006245              0.01      4.65      0  03:19       0.000     0.000
  WS02006247              0.01      4.25      0  03:19       0.000     0.000
  WS02006248              0.28     32.25      0  01:57       0.014     0.000
  WS02006249              1.55     83.32      0  01:37       0.262     0.000
  WS02006252              0.01    245.63      0  00:00       0.000     0.000
  WS02006256              1.83    301.18      0  02:28       0.722     0.000
  YS02001580              0.01     44.25      0  01:44       0.000     0.000
  YS02001586              0.84    923.19      0  02:04       1.106     0.000
  YS02001590              0.01      9.78      0  01:44       0.000     0.000
  YS02001600              0.01      2.10      0  01:44       0.000     0.000
  YS02001601              1.09   2048.48      0  02:02       2.834     0.000
  YS02001602              0.88     62.01      0  02:15       0.181     0.000
  YS02001605              0.01      0.14      0  02:01       0.000     0.000
  YS02001610              0.79    954.60      0  02:04       1.533     0.000
  YS02001616              0.09      1.38      0  02:00       0.000     0.000
  YS02001619              0.20    534.98      0  02:03       0.221     0.000
  YS02001625              0.72   1505.19      0  02:09       2.190     0.000
  YS02001629              0.29    415.54      0  02:02       0.198     0.000
  YS02001633              0.01      2.04      0  02:00       0.000     0.000
  YS02001644              0.34   2337.75      0  02:02       1.326     0.000
  YS02001770              0.12    525.18      0  02:01       0.122     0.000
  YS02001779              0.30    851.32      0  02:05       0.566     0.000
  YS02001882              0.01      0.78      0  01:50       0.000     0.000
  YS02001884              0.01      0.70      0  01:50       0.000     0.000
  YS02001890              0.33    783.34      0  02:01       0.376     0.000
  YS02001907              0.60   3098.32      0  02:02       3.088     0.000
  YS02001915              0.10    304.97      0  02:02       0.070     0.000
  YS02001918              0.01     82.73      0  01:50       0.000     0.000
  YS02001923              0.01    101.91      0  01:50       0.000     0.000
  YS02001926              0.01     53.12      0  01:50       0.000     0.000
  YS02001929              0.01    136.37      0  01:50       0.000     0.000
  YS02163601              0.01      1.22      0  01:57       0.000     0.000
  
  
  **********************
  Storage Volume Summary
  **********************
  
  ------------------------------------------------------------------------------------------------
                         Average    Avg   Evap  Exfil     Maximum    Max    Time of Max    Maximum
                          Volume   Pcnt   Pcnt   Pcnt      Volume   Pcnt     Occurrence    Outflow
  Storage Unit           1000 m³   Full   Loss   Loss     1000 m³   Full    days hr:min        LPS
  ------------------------------------------------------------------------------------------------
  CC-storage               1.712   26.7    0.0    0.0       4.312   67.3       0  02:44    1783.53
  JK-storage               0.010    3.5    0.0    0.0       0.150   51.6       0  00:00    2300.00
  
  
  ***********************
  Outfall Loading Summary
  ***********************
  
  -----------------------------------------------------------
                         Flow       Avg       Max       Total
                         Freq      Flow      Flow      Volume
  Outfall Node           Pcnt       LPS       LPS    10^6 ltr
  -----------------------------------------------------------
  CC-1                  56.84    683.00    683.00       6.440
  CC-2                  56.84    683.00    683.00       6.440
  JK-1                  11.36   1000.00   1000.00       1.880
  JK-2                  11.36   1000.00   1000.00       1.880
  WSC                   99.94    283.03    551.41       5.568
  -----------------------------------------------------------
  System                47.27   3649.03   3905.71      22.209
  
  
  ********************
  Link Flow Summary
  ********************
  
  -----------------------------------------------------------------------------
                                 Maximum  Time of Max   Maximum    Max/    Max/
                                  |Flow|   Occurrence   |Veloc|    Full    Full
  Link                 Type          LPS  days hr:min     m/sec    Flow   Depth
  -----------------------------------------------------------------------------
  1                    CONDUIT    551.41     0  03:18      2.82    0.19    0.30
  WS02003060WS02003069 CONDUIT    550.07     0  03:16      1.64    0.22    0.34
  WS02003066WSF200     CONDUIT    533.34     0  03:16      2.85    0.09    0.22
  WS02003067WS02003066 CONDUIT    533.32     0  03:16      1.20    0.17    0.41
  WS02003069WS02003072 CONDUIT    550.36     0  03:17      1.37    0.26    0.39
  WS02003072WS02003073 CONDUIT    550.12     0  03:18      1.43    1.19    0.37
  WS02004401WS02004402 CONDUIT    536.84     0  03:13      1.22    0.64    0.86
  WS02004402WS02004403 CONDUIT    536.59     0  03:14      1.24    0.77    0.88
  WS02004403WS02004404 CONDUIT    535.50     0  03:14      1.24    0.39    0.93
  WS02004404WS02004405 CONDUIT    536.13     0  03:14      1.45    5.25    0.96
  WS02004405WS02004406 CONDUIT    536.69     0  03:14      1.46    1.06    0.95
  WS02004406WS02004407 CONDUIT    535.76     0  03:14      1.04    0.24    0.63
  WS02004407WS02004409 CONDUIT    535.41     0  03:15      1.59    0.19    0.48
  WS02004409WS02004410 CONDUIT    535.01     0  03:15      1.06    0.69    0.67
  WS02004410WS02004411 CONDUIT    534.37     0  03:15      1.13    0.73    0.68
  WS02004411WS02004412 CONDUIT    533.65     0  03:15      1.20    0.76    0.69
  WS02004412WS02004413 CONDUIT    533.64     0  03:16      1.22    0.36    0.78
  WS02004413WS02003067 CONDUIT    533.36     0  03:16      1.11    0.23    0.59
  WS02006109WS02006110 CONDUIT    564.15     0  01:38      1.12    1.08    1.00
  WS02006110WS02006113 CONDUIT    570.68     0  03:01      1.37    0.52    0.79
  WS02006111WS02006112 CONDUIT    544.12     0  03:12      1.95    0.26    0.67
  WS02006112WS02006115 CONDUIT    549.41     0  03:01      0.85    0.32    0.87
  WS02006113WS02006111 CONDUIT    561.64     0  03:05      2.47    0.67    0.46
  WS02006115WS02006116 CONDUIT    540.92     0  03:03      1.29    0.69    0.76
  WS02006116WS02004401 CONDUIT    536.79     0  03:13      1.21    0.74    0.84
  WS02006228WS02006109 CONDUIT    562.01     0  01:38      1.12    2.46    1.00
  WS02006229WS02006228 CONDUIT    561.81     0  01:38      1.12    1.86    1.00
  WS02006230WS02006229 CONDUIT    561.98     0  01:38      1.46   12.51    1.00
  WS02006231WS02006230 CONDUIT    616.07     0  03:19      1.67    9.34    1.00
  WS02006232WS02006231 CONDUIT    636.36     0  03:19      1.66    1.33    1.00
  WS02006234WS02006232 CONDUIT    629.79     0  03:19      1.64    1.27    1.00
  WS02006235WS02006234 CONDUIT    602.85     0  03:19      1.57    6.36    1.00
  WS02006238WS02006235 CONDUIT    436.28     0  03:14      1.45    0.97    1.00
  WS02006239WS02006238 CONDUIT    424.29     0  03:00      1.11    1.36    1.00
  WS02006240WS02006239 CONDUIT    423.13     0  03:45      1.24    1.33    1.00
  WS02006242WS02006240 CONDUIT    422.57     0  03:45      1.16    1.68    1.00
  WS02006243WS02006242 CONDUIT    423.30     0  03:45      1.38    0.90    1.00
  WS02006245WS02006243 CONDUIT    424.70     0  03:45      1.44    1.26    1.00
  WS02006247WS02006245 CONDUIT    425.63     0  03:45      1.43    3.37    1.00
  WS02006248WS02006247 CONDUIT    426.39     0  03:45      1.43    0.93    1.00
  WS02006249WS02006248 CONDUIT    427.43     0  03:45      1.38    2.34    1.00
  WS02006251WS02006249 CONDUIT    467.20     0  01:32      1.99    1.35    1.00
  WS02006252WS02006251 CONDUIT    406.77     0  03:17      4.89    1.49    1.00
  WS02006256WS02006235 CONDUIT    288.91     0  00:00      4.23    3.06    1.00
  WSF200WS02003060     CONDUIT    533.36     0  03:16      2.06    0.12    0.28
  YS02001580YS02001583 CONDUIT     71.87     0  01:44      0.52    0.28    1.00
  YS02001583YS02001586 CONDUIT    117.39     0  01:43      0.48    0.18    1.00
  YS02001586YS02001590 CONDUIT    318.22     0  02:01      1.24    0.56    1.00
  YS02001590YS02001593 CONDUIT    318.07     0  01:57      1.12    2.00    1.00
  YS02001593YS02001596 CONDUIT    317.95     0  02:18      1.76    0.50    1.00
  YS02001596YS02001600 CONDUIT    318.17     0  02:25      1.28    0.62    1.00
  YS02001600YS02001601 CONDUIT    318.41     0  02:25      1.13    0.55    1.00
  YS02001601YS02001602 CONDUIT    496.71     0  01:43      1.76    1.79    1.00
  YS02001602YS02001605 CONDUIT    496.14     0  01:43      1.75   10.50    1.00
  YS02001605YS02001607 CONDUIT    496.68     0  01:43      1.76    2.72    1.00
  YS02001607YS02001610 CONDUIT    497.63     0  01:42      0.63    0.47    1.00
  YS02001610YS02001613 CONDUIT    618.59     0  02:04      0.79    0.71    1.00
  YS02001613YS02001616 CONDUIT    619.07     0  02:04      0.79    0.53    1.00
  YS02001616YS02001619 CONDUIT    618.56     0  02:04      0.79    1.07    1.00
  YS02001619YS02001622 CONDUIT   1053.91     0  02:05      1.34    1.55    1.00
  YS02001622YS02001625 CONDUIT   1053.68     0  02:08      1.34    0.56    1.00
  YS02001625YS02001629 CONDUIT    931.57     0  01:49      1.19    0.44    1.00
  YS02001629YS02163301 CONDUIT    932.11     0  01:49      1.19    1.15    1.00
  YS02001633YS02163601 CONDUIT   1364.19     0  01:49      1.74    1.43    1.00
  YS02001641YS02001644 CONDUIT   1373.74     0  01:50      1.75    4.44    1.00
  YS02001644YS02001647 CONDUIT   1781.19     0  01:50      2.27    1.05    1.00
  YS02001647YS02001649 CONDUIT   1792.49     0  01:50      2.33    0.95    1.00
  YS02001649YS02001757 CONDUIT   2026.19     0  01:49      2.58    1.23    1.00
  YS02001652YS02001649 CONDUIT   1401.35     0  02:01      1.78    0.69    1.00
  YS02001655YS02001652 CONDUIT   1400.65     0  02:01      1.78    0.68    1.00
  YS02001658YS02001655 CONDUIT   1400.80     0  02:01      1.83    0.59    1.00
  YS02001661YS02001658 CONDUIT   1400.41     0  02:01      2.28    0.55    1.00
  YS02001664YS02001661 CONDUIT   1399.35     0  02:01      2.27    0.44    0.98
  YS02001745YS02001748 CONDUIT    880.97     0  02:01      2.13    0.34    0.99
  YS02001748YS02001751 CONDUIT    881.94     0  02:01      1.65    0.45    1.00
  YS02001751YS02001754 CONDUIT    882.47     0  02:01      1.40    0.43    1.00
  YS02001754YS02001757 CONDUIT    882.98     0  02:01      1.12    0.36    1.00
  YS02001757CaochengTiaoxuchi CONDUIT   3664.98     0  02:00      5.51    1.59    1.00
  YS02001759YS02001757 CONDUIT   1551.96     0  02:01      1.98    1.10    1.00
  YS02001762YS02001759 CONDUIT    783.59     0  02:12      1.00    0.90    1.00
  YS02001765YS02001762 CONDUIT    782.74     0  02:12      1.00    0.73    1.00
  YS02001767YS02001765 CONDUIT    782.96     0  02:12      1.00    0.98    1.00
  YS02001770YS02001767 CONDUIT    781.70     0  01:55      1.00    3.10    1.00
  YS02001774YS02001770 CONDUIT    851.93     0  02:04      1.08    0.54    1.00
  YS02001779YS02001774 CONDUIT    851.50     0  02:05      1.08    0.43    1.00
  YS02001783YS02001784 CONDUIT   1180.24     0  02:01      2.35    1.63    1.00
  YS02001784YS02001785 CONDUIT   1181.79     0  02:01      2.35    2.75    1.00
  YS02001786YS02001788 CONDUIT   1181.45     0  02:00      2.51    2.28    0.89
  YS02001788YS02001790 CONDUIT   1188.93     0  01:59      2.74    0.88    0.85
  YS02001790YS02001791 CONDUIT   1304.80     0  01:59      3.43    1.42    0.71
  YS02001791YS02001793 CONDUIT   1257.50     0  01:59      6.78    0.54    0.42
  YS02001793JiankangQianchi CONDUIT   1348.24     0  02:20     14.88    0.11    0.50
  YS02001882YS02001884 CONDUIT     40.24     0  01:47      0.18    0.05    1.00
  YS02001884YS02001887 CONDUIT     37.00     0  01:47      0.14    0.05    1.00
  YS02001887YS02001890 CONDUIT   1299.59     0  02:01      1.65    2.22    1.00
  YS02001890YS02001895 CONDUIT    518.48     0  01:59      0.66    0.24    1.00
  YS02001895YS02001898 CONDUIT    518.41     0  01:59      0.66    0.90    1.00
  YS02001898YS02001901 CONDUIT    518.69     0  01:58      0.66    0.33    1.00
  YS02001901YS02001904 CONDUIT    518.93     0  01:59      0.66    0.80    1.00
  YS02001904YS02001907 CONDUIT    518.93     0  01:59      0.66    0.18    1.00
  YS02001907YS02006553 CONDUIT    794.71     0  02:27      0.88    0.93    1.00
  YS02001910YS02001907 CONDUIT   1992.97     0  02:04      2.54    1.12    1.00
  YS02001915YS02001910 CONDUIT   1993.09     0  02:05      2.54    0.99    1.00
  YS02001918YS02001915 CONDUIT    761.75     0  02:03      0.97    0.42    1.00
  YS02001920YS02001918 CONDUIT    761.84     0  02:02      0.97    0.74    1.00
  YS02001923YS02001920 CONDUIT    758.71     0  02:02      0.97    0.34    1.00
  YS02001926YS02001923 CONDUIT    758.99     0  02:02      0.97    1.08    1.00
  YS02001929YS02001926 CONDUIT    758.65     0  02:02      1.07    0.36    1.00
  YS02006553YS02006556 CONDUIT    794.77     0  02:27      1.01    0.68    1.00
  YS02006556YS02006558 CONDUIT    796.41     0  02:27      1.01    0.63    1.00
  YS02006558YS02006561 CONDUIT   1179.28     0  02:01      4.17    2.61    1.00
  YS02006561YS02001783 CONDUIT   1180.18     0  02:01      2.35    0.61    1.00
  YS02163301YS02001633 CONDUIT    931.03     0  01:49      1.19    0.88    1.00
  YS02163601YS02164001 CONDUIT   1363.89     0  01:49      1.74    1.21    1.00
  YS02164001YS02001641 CONDUIT   1368.39     0  01:50      1.74    1.87    1.00
  CC-R1                PUMP       683.00     0  00:00              1.00
  CC-R2                PUMP       683.00     0  00:00              1.00
  CC-S1                PUMP       200.00     0  00:00              1.00
  CC-S2                PUMP       200.00     0  00:00              1.00
  JK-R1                PUMP      1000.00     0  00:00              1.00
  JK-R2                PUMP      1000.00     0  00:00              1.00
  JK-S                 PUMP       300.00     0  00:00              1.00
  
  
  ***************************
  Flow Classification Summary
  ***************************
  
  -------------------------------------------------------------------------------------
                      Adjusted    ---------- Fraction of Time in Flow Class ---------- 
                       /Actual         Up    Down  Sub   Sup   Up    Down  Norm  Inlet 
  Conduit               Length    Dry  Dry   Dry   Crit  Crit  Crit  Crit  Ltd   Ctrl  
  -------------------------------------------------------------------------------------
  1                       1.00   0.00  0.00  0.00  0.00  1.00  0.00  0.00  0.39  0.00
  WS02003060WS02003069    1.00   0.00  0.00  0.00  0.98  0.02  0.00  0.00  0.68  0.00
  WS02003066WSF200        1.00   0.05  0.00  0.00  0.00  0.95  0.00  0.00  0.80  0.00
  WS02003067WS02003066    1.00   0.05  0.00  0.00  0.95  0.00  0.00  0.00  0.00  0.00
  WS02003069WS02003072    1.00   0.00  0.00  0.00  0.99  0.01  0.00  0.00  0.69  0.00
  WS02003072WS02003073    1.00   0.00  0.00  0.00  0.00  0.00  0.00  1.00  0.00  0.00
  WS02004401WS02004402    1.00   0.02  0.00  0.00  0.98  0.00  0.00  0.00  0.00  0.00
  WS02004402WS02004403    1.00   0.02  0.00  0.00  0.98  0.00  0.00  0.00  0.00  0.00
  WS02004403WS02004404    1.00   0.00  0.03  0.00  0.97  0.00  0.00  0.00  0.00  0.00
  WS02004404WS02004405    1.00   0.00  0.00  0.00  1.00  0.00  0.00  0.00  0.01  0.00
  WS02004405WS02004406    1.00   0.00  0.00  0.00  1.00  0.00  0.00  0.00  0.00  0.00
  WS02004406WS02004407    1.00   0.00  0.03  0.00  0.97  0.00  0.00  0.00  0.00  0.00
  WS02004407WS02004409    1.00   0.03  0.00  0.00  0.95  0.01  0.00  0.00  0.95  0.00
  WS02004409WS02004410    1.00   0.03  0.00  0.00  0.96  0.00  0.00  0.00  0.00  0.00
  WS02004410WS02004411    1.00   0.04  0.00  0.00  0.96  0.00  0.00  0.00  0.00  0.00
  WS02004411WS02004412    1.00   0.04  0.00  0.00  0.96  0.00  0.00  0.00  0.00  0.00
  WS02004412WS02004413    1.00   0.04  0.00  0.00  0.96  0.00  0.00  0.00  0.00  0.00
  WS02004413WS02003067    1.00   0.04  0.01  0.00  0.00  0.00  0.95  0.00  0.00  0.00
  WS02006109WS02006110    1.00   0.00  0.01  0.00  0.98  0.00  0.01  0.00  0.00  0.00
  WS02006110WS02006113    1.00   0.01  0.01  0.00  0.98  0.00  0.00  0.00  0.00  0.00
  WS02006111WS02006112    1.00   0.02  0.00  0.00  0.98  0.00  0.00  0.00  0.98  0.00
  WS02006112WS02006115    1.00   0.02  0.00  0.00  0.97  0.00  0.00  0.00  0.00  0.00
  WS02006113WS02006111    1.00   0.02  0.00  0.00  0.00  0.98  0.00  0.00  0.12  0.00
  WS02006115WS02006116    1.00   0.02  0.00  0.00  0.97  0.00  0.00  0.01  0.00  0.00
  WS02006116WS02004401    1.00   0.02  0.00  0.00  0.98  0.00  0.00  0.00  0.00  0.00
  WS02006228WS02006109    1.00   0.00  0.00  0.00  1.00  0.00  0.00  0.00  0.00  0.00
  WS02006229WS02006228    1.00   0.00  0.00  0.00  0.99  0.00  0.00  0.01  0.00  0.00
  WS02006230WS02006229    1.00   0.00  0.00  0.00  0.99  0.00  0.00  0.01  0.03  0.00
  WS02006231WS02006230    1.00   0.00  0.00  0.00  0.32  0.00  0.68  0.00  0.00  0.00
  WS02006232WS02006231    1.00   0.00  0.00  0.00  0.98  0.00  0.02  0.00  0.00  0.00
  WS02006234WS02006232    1.00   0.00  0.00  0.00  1.00  0.00  0.00  0.00  0.05  0.00
  WS02006235WS02006234    1.00   0.00  0.00  0.00  0.93  0.00  0.07  0.00  0.00  0.00
  WS02006238WS02006235    1.00   0.00  0.00  0.00  0.99  0.00  0.00  0.00  0.00  0.00
  WS02006239WS02006238    1.00   0.00  0.00  0.00  1.00  0.00  0.00  0.00  0.23  0.00
  WS02006240WS02006239    1.00   0.00  0.00  0.00  0.63  0.00  0.00  0.36  0.03  0.00
  WS02006242WS02006240    1.00   0.00  0.00  0.00  1.00  0.00  0.00  0.00  0.03  0.00
  WS02006243WS02006242    1.00   0.00  0.00  0.00  0.99  0.00  0.00  0.00  0.61  0.00
  WS02006245WS02006243    1.00   0.00  0.00  0.00  0.49  0.00  0.00  0.51  0.01  0.00
  WS02006247WS02006245    1.00   0.00  0.00  0.00  0.99  0.00  0.00  0.01  0.00  0.00
  WS02006248WS02006247    1.00   0.00  0.00  0.00  0.99  0.00  0.00  0.00  0.13  0.00
  WS02006249WS02006248    1.00   0.00  0.00  0.00  0.37  0.00  0.63  0.00  0.00  0.00
  WS02006251WS02006249    1.00   0.00  0.01  0.00  0.99  0.00  0.00  0.00  0.64  0.00
  WS02006252WS02006251    1.00   0.00  0.15  0.00  0.22  0.00  0.63  0.00  0.00  0.00
  WS02006256WS02006235    1.00   0.00  0.00  0.00  0.98  0.02  0.00  0.00  0.00  0.00
  WSF200WS02003060        1.00   0.00  0.05  0.00  0.46  0.49  0.00  0.00  0.63  0.00
  YS02001580YS02001583    1.00   0.21  0.53  0.00  0.25  0.00  0.00  0.00  0.62  0.00
  YS02001583YS02001586    1.00   0.39  0.30  0.00  0.31  0.00  0.00  0.00  0.63  0.00
  YS02001586YS02001590    1.00   0.13  0.00  0.00  0.47  0.04  0.00  0.36  0.34  0.00
  YS02001590YS02001593    1.00   0.13  0.01  0.00  0.18  0.00  0.69  0.00  0.00  0.00
  YS02001593YS02001596    1.00   0.13  0.00  0.00  0.20  0.01  0.00  0.66  0.02  0.00
  YS02001596YS02001600    1.00   0.13  0.00  0.00  0.25  0.01  0.00  0.61  0.04  0.00
  YS02001600YS02001601    1.00   0.13  0.01  0.00  0.86  0.00  0.00  0.00  0.56  0.00
  YS02001601YS02001602    1.00   0.13  0.01  0.00  0.87  0.00  0.00  0.00  0.00  0.00
  YS02001602YS02001605    1.00   0.13  0.00  0.00  0.87  0.00  0.00  0.00  0.00  0.00
  YS02001605YS02001607    1.00   0.13  0.00  0.00  0.87  0.00  0.00  0.00  0.00  0.00
  YS02001607YS02001610    1.00   0.13  0.00  0.00  0.86  0.00  0.00  0.00  0.01  0.00
  YS02001610YS02001613    1.00   0.13  0.00  0.00  0.87  0.00  0.00  0.00  0.00  0.00
  YS02001613YS02001616    1.00   0.13  0.00  0.00  0.87  0.00  0.00  0.00  0.00  0.00
  YS02001616YS02001619    1.00   0.13  0.00  0.00  0.87  0.00  0.00  0.00  0.00  0.00
  YS02001619YS02001622    1.00   0.13  0.00  0.00  0.87  0.00  0.00  0.00  0.26  0.00
  YS02001622YS02001625    1.00   0.13  0.00  0.00  0.87  0.00  0.00  0.00  0.02  0.00
  YS02001625YS02001629    1.00   0.13  0.03  0.00  0.21  0.00  0.62  0.00  0.00  0.00
  YS02001629YS02163301    1.00   0.14  0.01  0.00  0.85  0.00  0.00  0.00  0.00  0.00
  YS02001633YS02163601    1.00   0.00  0.01  0.00  0.99  0.00  0.00  0.00  0.14  0.00
  YS02001641YS02001644    1.00   0.00  0.01  0.00  0.99  0.00  0.00  0.00  0.00  0.00
  YS02001644YS02001647    1.00   0.00  0.16  0.00  0.84  0.00  0.00  0.00  0.00  0.00
  YS02001647YS02001649    1.00   0.00  0.15  0.00  0.57  0.27  0.00  0.00  0.54  0.00
  YS02001649YS02001757    1.00   0.00  0.00  0.00  0.70  0.29  0.00  0.00  0.43  0.00
  YS02001652YS02001649    1.00   0.00  0.00  0.00  0.98  0.02  0.00  0.00  0.70  0.00
  YS02001655YS02001652    1.00   0.00  0.00  0.00  0.23  0.01  0.00  0.76  0.05  0.00
  YS02001658YS02001655    1.00   0.00  0.14  0.00  0.69  0.17  0.00  0.00  0.63  0.00
  YS02001661YS02001658    1.00   0.14  0.00  0.00  0.52  0.34  0.00  0.00  0.67  0.00
  YS02001664YS02001661    1.00   0.13  0.00  0.00  0.73  0.14  0.00  0.00  0.84  0.00
  YS02001745YS02001748    1.00   0.00  0.00  0.00  0.14  0.01  0.00  0.85  0.07  0.00
  YS02001748YS02001751    1.00   0.00  0.00  0.00  0.85  0.15  0.00  0.00  0.74  0.00
  YS02001751YS02001754    1.00   0.00  0.00  0.00  0.21  0.01  0.00  0.79  0.03  0.00
  YS02001754YS02001757    1.00   0.00  0.00  0.00  1.00  0.00  0.00  0.00  0.78  0.00
  YS02001757CaochengTiaoxuchi    1.00   0.00  0.00  0.00  0.81  0.19  0.00  0.00  0.70  0.00
  YS02001759YS02001757    1.00   0.00  0.00  0.00  0.99  0.01  0.00  0.00  0.59  0.00
  YS02001762YS02001759    1.00   0.00  0.00  0.00  1.00  0.00  0.00  0.00  0.03  0.00
  YS02001765YS02001762    1.00   0.00  0.00  0.00  1.00  0.00  0.00  0.00  0.70  0.00
  YS02001767YS02001765    1.00   0.00  0.00  0.00  1.00  0.00  0.00  0.00  0.00  0.00
  YS02001770YS02001767    1.00   0.00  0.00  0.00  1.00  0.00  0.00  0.00  0.00  0.00
  YS02001774YS02001770    1.00   0.00  0.13  0.00  0.72  0.00  0.15  0.00  0.02  0.00
  YS02001779YS02001774    1.00   0.00  0.00  0.00  1.00  0.00  0.00  0.00  0.73  0.00
  YS02001783YS02001784    1.00   0.00  0.16  0.00  0.84  0.00  0.00  0.00  0.54  0.00
  YS02001784YS02001785    1.00   0.00  0.00  0.00  1.00  0.00  0.00  0.00  0.15  0.00
  YS02001786YS02001788    1.00   0.00  0.00  0.00  0.80  0.20  0.00  0.00  0.00  0.00
  YS02001788YS02001790    1.00   0.00  0.00  0.00  0.20  0.80  0.00  0.00  0.77  0.00
  YS02001790YS02001791    1.00   0.00  0.00  0.00  0.01  0.99  0.00  0.00  0.15  0.00
  YS02001791YS02001793    1.00   0.00  0.00  0.00  0.00  1.00  0.00  0.00  0.01  0.00
  YS02001793JiankangQianchi    1.00   0.00  0.00  0.00  0.61  0.39  0.00  0.00  0.93  0.00
  YS02001882YS02001884    1.00   0.14  0.00  0.00  0.85  0.00  0.00  0.00  0.00  0.00
  YS02001884YS02001887    1.00   0.06  0.05  0.00  0.89  0.00  0.00  0.00  0.00  0.00
  YS02001887YS02001890    1.00   0.00  0.00  0.00  0.97  0.00  0.03  0.00  0.00  0.00
  YS02001890YS02001895    1.00   0.00  0.15  0.00  0.85  0.00  0.00  0.00  0.00  0.00
  YS02001895YS02001898    1.00   0.15  0.00  0.00  0.84  0.00  0.01  0.00  0.00  0.00
  YS02001898YS02001901    1.00   0.15  0.00  0.00  0.85  0.00  0.00  0.00  0.00  0.00
  YS02001901YS02001904    1.00   0.15  0.00  0.00  0.85  0.00  0.00  0.00  0.00  0.00
  YS02001904YS02001907    1.00   0.00  0.15  0.00  0.85  0.00  0.00  0.00  0.00  0.00
  YS02001907YS02006553    1.00   0.00  0.02  0.00  0.98  0.00  0.00  0.00  0.00  0.00
  YS02001910YS02001907    1.00   0.00  0.00  0.00  0.97  0.00  0.00  0.03  0.12  0.00
  YS02001915YS02001910    1.00   0.00  0.00  0.00  0.97  0.03  0.00  0.00  0.13  0.00
  YS02001918YS02001915    1.00   0.00  0.01  0.00  0.98  0.02  0.00  0.00  0.68  0.00
  YS02001920YS02001918    1.00   0.00  0.01  0.00  0.99  0.00  0.00  0.00  0.00  0.00
  YS02001923YS02001920    1.00   0.00  0.00  0.00  1.00  0.00  0.00  0.00  0.88  0.00
  YS02001926YS02001923    1.00   0.00  0.07  0.00  0.10  0.00  0.82  0.00  0.00  0.00
  YS02001929YS02001926    1.00   0.00  0.13  0.00  0.87  0.00  0.00  0.00  0.78  0.00
  YS02006553YS02006556    1.00   0.01  0.00  0.00  0.99  0.00  0.00  0.00  0.03  0.00
  YS02006556YS02006558    1.00   0.00  0.00  0.00  1.00  0.00  0.00  0.00  0.00  0.00
  YS02006558YS02006561    1.00   0.16  0.00  0.00  0.09  0.74  0.00  0.00  0.16  0.00
  YS02006561YS02001783    1.00   0.16  0.00  0.00  0.14  0.70  0.00  0.00  0.64  0.00
  YS02163301YS02001633    1.00   0.00  0.14  0.00  0.86  0.00  0.00  0.00  0.00  0.00
  YS02163601YS02164001    1.00   0.00  0.08  0.00  0.92  0.00  0.00  0.00  0.00  0.00
  YS02164001YS02001641    1.00   0.01  0.08  0.00  0.92  0.00  0.00  0.00  0.05  0.00
  
  
  *************************
  Conduit Surcharge Summary
  *************************
  
  ----------------------------------------------------------------------------
                                                           Hours        Hours 
                         --------- Hours Full --------   Above Full   Capacity
  Conduit                Both Ends  Upstream  Dnstream   Normal Flow   Limited
  ----------------------------------------------------------------------------
  WS02003072WS02003073        0.01      0.01      0.01      2.00         0.01
  WS02004404WS02004405        0.01      0.01      0.01      3.02         0.01
  WS02004405WS02004406        0.01      0.01      0.01      1.38         0.01
  WS02006109WS02006110        0.46      0.46      2.45      0.84         0.01
  WS02006110WS02006113        0.01      0.01      2.42      0.01         0.01
  WS02006111WS02006112        0.01      0.01      2.49      0.01         0.01
  WS02006112WS02006115        0.01      0.01      1.55      0.01         0.01
  WS02006228WS02006109        2.37      2.45      2.37      2.70         2.37
  WS02006229WS02006228        2.36      2.39      2.36      2.59         2.34
  WS02006230WS02006229        2.51      2.55      2.51      3.33         2.51
  WS02006231WS02006230        0.57      0.57      1.62      3.09         0.01
  WS02006232WS02006231        1.31      1.31      2.46      1.39         0.01
  WS02006234WS02006232        2.14      2.14      2.46      1.32         1.16
  WS02006235WS02006234        1.79      1.87      2.08      3.01         0.15
  WS02006238WS02006235        2.17      2.17      2.47      0.01         0.07
  WS02006239WS02006238        2.32      2.46      2.32      2.57         1.91
  WS02006240WS02006239        2.32      2.41      2.32      2.56         1.79
  WS02006242WS02006240        2.39      2.39      2.53      2.63         0.03
  WS02006243WS02006242        2.42      2.42      2.48      0.01         0.37
  WS02006245WS02006243        2.41      2.42      2.41      2.15         1.50
  WS02006247WS02006245        2.41      2.44      2.41      2.69         2.21
  WS02006248WS02006247        2.40      2.40      2.42      0.01         0.42
  WS02006249WS02006248        2.39      2.39      2.41      2.67         0.01
  WS02006251WS02006249        2.41      2.41      2.41      2.63         2.16
  WS02006252WS02006251        2.68      2.68      2.68      2.68         0.01
  WS02006256WS02006235        2.80      3.05      5.52      1.86         0.03
  YS02001580YS02001583        1.04      1.04      1.09      0.01         0.01
  YS02001583YS02001586        1.05      1.05      1.19      0.01         0.01
  YS02001586YS02001590        1.20      1.20      1.29      0.01         0.01
  YS02001590YS02001593        1.29      1.29      1.32      1.32         0.01
  YS02001593YS02001596        1.31      1.31      1.42      0.01         0.01
  YS02001596YS02001600        1.47      1.47      1.55      0.01         0.01
  YS02001600YS02001601        1.60      1.60      1.83      0.01         0.01
  YS02001601YS02001602        1.74      1.74      1.86      1.57         0.01
  YS02001602YS02001605        1.70      1.70      1.74      2.57         0.01
  YS02001605YS02001607        1.66      1.70      1.66      1.80         1.66
  YS02001607YS02001610        1.25      1.25      1.28      0.01         0.01
  YS02001610YS02001613        1.24      1.24      1.28      0.01         0.01
  YS02001613YS02001616        1.18      1.18      1.24      0.01         0.01
  YS02001616YS02001619        1.17      1.17      1.18      0.19         0.14
  YS02001619YS02001622        1.16      1.17      1.16      1.33         1.13
  YS02001622YS02001625        1.16      1.16      1.38      0.01         0.01
  YS02001625YS02001629        1.08      1.08      1.38      0.01         0.01
  YS02001629YS02163301        1.37      1.37      1.38      0.46         0.37
  YS02001633YS02163601        1.40      1.40      1.43      0.64         0.63
  YS02001641YS02001644        1.29      1.32      1.29      1.88         1.27
  YS02001644YS02001647        0.96      0.96      1.29      0.04         0.01
  YS02001647YS02001649        0.96      0.96      1.11      0.01         0.01
  YS02001649YS02001757        1.10      1.11      1.18      0.38         0.31
  YS02001652YS02001649        0.87      0.87      1.11      0.01         0.01
  YS02001655YS02001652        0.58      0.58      0.83      0.01         0.01
  YS02001658YS02001655        0.37      0.37      0.58      0.01         0.01
  YS02001661YS02001658        0.16      0.16      0.37      0.01         0.01
  YS02001664YS02001661        0.01      0.01      0.21      0.01         0.01
  YS02001745YS02001748        0.01      0.01      0.25      0.01         0.01
  YS02001748YS02001751        0.33      0.33      0.44      0.01         0.01
  YS02001751YS02001754        0.44      0.44      0.65      0.01         0.01
  YS02001754YS02001757        0.74      0.74      1.18      0.01         0.01
  YS02001757CaochengTiaoxuchi        0.87      1.18      1.29      0.70         0.32
  YS02001759YS02001757        1.05      1.05      1.18      0.19         0.19
  YS02001762YS02001759        1.02      1.02      1.05      0.01         0.03
  YS02001765YS02001762        0.95      0.95      1.02      0.01         0.01
  YS02001767YS02001765        0.90      0.90      0.95      0.01         0.06
  YS02001770YS02001767        0.90      0.90      0.90      0.88         0.69
  YS02001774YS02001770        0.86      0.86      0.99      0.01         0.01
  YS02001779YS02001774        0.65      0.65      0.99      0.01         0.01
  YS02001783YS02001784        0.83      0.87      0.83      1.09         0.83
  YS02001784YS02001785        0.69      0.83      0.69      1.45         0.69
  YS02001786YS02001788        0.01      0.69      0.01      1.25         0.01
  YS02001790YS02001791        0.01      0.01      0.01      0.81         0.01
  YS02001882YS02001884        0.79      0.79      0.80      0.01         0.01
  YS02001884YS02001887        0.83      0.83      0.85      0.01         0.01
  YS02001887YS02001890        0.87      0.87      0.89      0.26         0.01
  YS02001890YS02001895        0.78      0.78      0.91      0.01         0.01
  YS02001895YS02001898        0.77      0.77      0.78      0.01         0.01
  YS02001898YS02001901        0.78      0.78      0.83      0.01         0.01
  YS02001901YS02001904        0.82      0.82      0.83      0.01         0.01
  YS02001904YS02001907        0.82      0.82      1.23      0.01         0.01
  YS02001907YS02006553        1.47      1.47      1.52      0.01         0.01
  YS02001910YS02001907        0.91      0.91      1.18      0.14         0.14
  YS02001915YS02001910        0.79      0.79      0.91      0.01         0.02
  YS02001918YS02001915        0.68      0.68      0.79      0.01         0.01
  YS02001920YS02001918        0.68      0.68      0.69      0.01         0.01
  YS02001923YS02001920        0.62      0.62      0.69      0.01         0.01
  YS02001926YS02001923        0.27      0.27      0.32      0.08         0.01
  YS02001929YS02001926        0.16      0.16      0.32      0.01         0.01
  YS02006553YS02006556        1.04      1.04      1.22      0.01         0.01
  YS02006556YS02006558        1.13      1.13      1.26      0.01         0.01
  YS02006558YS02006561        0.72      1.02      0.72      1.39         0.72
  YS02006561YS02001783        0.63      0.63      0.87      0.01         0.01
  YS02163301YS02001633        1.38      1.38      1.42      0.01         0.01
  YS02163601YS02164001        1.33      1.33      1.43      0.14         0.01
  YS02164001YS02001641        1.32      1.33      1.32      1.08         0.98
  
  
  ***************
  Pumping Summary
  ***************
  
  ---------------------------------------------------------------------------------------------------------
                                                  Min       Avg       Max     Total     Power    % Time Off
                        Percent   Number of      Flow      Flow      Flow    Volume     Usage    Pump Curve
  Pump                 Utilized   Start-Ups       LPS       LPS       LPS  10^6 ltr     Kw-hr    Low   High
  ---------------------------------------------------------------------------------------------------------
  CC-R1                   33.08           2      0.00    683.00    683.00     6.439    112.84    0.0   50.8
  CC-R2                   33.08           2      0.00    683.00    683.00     6.439    112.84    0.0   50.8
  CC-S1                   33.84           2      0.00    200.00    200.00     1.929     12.91    0.0   16.9
  CC-S2                   33.84           2      0.00    200.00    200.00     1.929     12.91    0.0   16.9
  JK-R1                    6.68          87      0.00   1000.00   1000.00     1.903      5.93    0.0    0.0
  JK-R2                    6.68          87      0.00   1000.00   1000.00     1.903      5.93    0.0    0.0
  JK-S                    23.13         119      0.00    300.00    300.00     1.978     43.97    0.0    0.0
  

  Analysis begun on:  Tue Apr 22 10:16:54 2025
  Analysis ended on:  Tue Apr 22 10:16:56 2025
  Total elapsed time: 00:00:02