
  EPA STORM WATER MANAGEMENT MODEL - VERSION 5.2 (Build 5.2.4)
  PYSWMM TOOLKIT API - VERSION v1.0 (2023-11-27)
  ------------------------------------------------------------

  WARNING 04: minimum elevation drop used for Conduit WS02004404WS02004405
  WARNING 03: negative offset ignored for Link YS02001904YS02001907
  
  ****************
  Analysis Options
  ****************
  Flow Units ............... LPS
  Process Models:
    Rainfall/Runoff ........ YES
    RDII ................... NO
    Snowmelt ............... NO
    Groundwater ............ NO
    Flow Routing ........... YES
    Ponding Allowed ........ NO
    Water Quality .......... NO
  Infiltration Method ...... HORTON
  Flow Routing Method ...... DYNWAVE
  Surcharge Method ......... EXTRAN
  Starting Date ............ 08/28/2015 08:00:00
  Ending Date .............. 08/28/2015 16:00:00
  Antecedent Dry Days ...... 8.0
  Report Time Step ......... 00:01:00
  Wet Time Step ............ 00:01:00
  Dry Time Step ............ 00:01:00
  Routing Time Step ........ 30.00 sec
  Variable Time Step ....... YES
  Maximum Trials ........... 8
  Number of Threads ........ 4
  Head Tolerance ........... 0.001500 m
  
  
  **************************        Volume         Depth
  Runoff Quantity Continuity     hectare-m            mm
  **************************     ---------       -------
  Total Precipitation ......         1.357        40.899
  Evaporation Loss .........         0.000         0.000
  Infiltration Loss ........         0.095         2.854
  Surface Runoff ...........         1.229        37.058
  Final Storage ............         0.033         0.996
  Continuity Error (%) .....        -0.021
  
  
  **************************        Volume        Volume
  Flow Routing Continuity        hectare-m      10^6 ltr
  **************************     ---------     ---------
  Dry Weather Inflow .......         0.025         0.248
  Wet Weather Inflow .......         1.229        12.289
  Groundwater Inflow .......         0.000         0.000
  RDII Inflow ..............         0.000         0.000
  External Inflow ..........         0.083         0.825
  External Outflow .........         1.297        12.967
  Flooding Loss ............         0.212         2.125
  Evaporation Loss .........         0.000         0.000
  Exfiltration Loss ........         0.000         0.000
  Initial Stored Volume ....         0.243         2.431
  Final Stored Volume ......         0.079         0.794
  Continuity Error (%) .....        -0.589
  
  
  *************************
  Highest Continuity Errors
  *************************
  Node YS02001884 (5.35%)
  Node YS02001583 (-4.11%)
  Node WS02006256 (-3.95%)
  Node YS02001774 (1.93%)
  
  
  ***************************
  Time-Step Critical Elements
  ***************************
  Link WS02006238WS02006235 (30.11%)
  Link WS02004404WS02004405 (27.88%)
  Link WS02003066WSF200 (13.03%)
  Link YS02001791YS02001793 (6.05%)
  Link YS02006556YS02006558 (3.40%)
  
  
  ********************************
  Highest Flow Instability Indexes
  ********************************
  Link WS02006113WS02006111 (33)
  Link WS02004404WS02004405 (23)
  Link WS02006256WS02006235 (22)
  Link WS02006238WS02006235 (21)
  Link WS02006252WS02006251 (21)
  
  
  *********************************
  Most Frequent Nonconverging Nodes
  *********************************
  Node CC-1 (25.43%)
  Node CC-2 (25.43%)
  Node JK-1 (25.43%)
  Node JK-2 (25.43%)
  Node WSC (25.43%)
  
  
  *************************
  Routing Time Step Summary
  *************************
  Minimum Time Step           :     0.00 sec
  Average Time Step           :     3.17 sec
  Maximum Time Step           :     6.43 sec
  % of Time in Steady State   :     0.00
  Average Iterations per Step :     3.92
  % of Steps Not Converging   :    25.43
  Time Step Frequencies       :
     30.000 - 13.228 sec      :     0.00 %
     13.228 -  5.833 sec      :    19.49 %
      5.833 -  2.572 sec      :    33.05 %
      2.572 -  1.134 sec      :    32.47 %
      1.134 -  0.500 sec      :    14.99 %
  
  
  ***************************
  Subcatchment Runoff Summary
  ***************************
  
  ------------------------------------------------------------------------------------------------------------------------------
                            Total      Total      Total      Total     Imperv       Perv      Total       Total     Peak  Runoff
                           Precip      Runon       Evap      Infil     Runoff     Runoff     Runoff      Runoff   Runoff   Coeff
  Subcatchment                 mm         mm         mm         mm         mm         mm         mm    10^6 ltr      LPS
  ------------------------------------------------------------------------------------------------------------------------------
  sub60                     40.90       0.00       0.00       1.71      34.78       3.20      37.99        0.50   363.78   0.929
  sub61                     40.90       0.00       0.00       2.48      32.81       4.47      37.28        0.68   504.18   0.912
  sub62                     40.90       0.00       0.00       1.14      36.33       2.14      38.47        1.05   702.71   0.941
  sub63                     40.90       0.00       0.00       4.63      28.06       7.23      35.30        0.80   559.10   0.863
  sub64                     40.90       0.00       0.00       2.33      33.55       3.80      37.35        0.90   565.50   0.913
  sub65                     40.90       0.00       0.00       2.02      34.32       3.30      37.62        1.04   632.20   0.920
  sub66                     40.90       0.00       0.00       5.70      27.96       6.16      34.11        1.59   809.59   0.834
  sub67                     40.90       0.00       0.00       1.09      36.38       2.18      38.56        0.72   550.28   0.943
  sub68                     40.90       0.00       0.00       2.06      33.98       3.67      37.65        1.04   722.67   0.921
  sub69                     40.90       0.00       0.00       1.83      34.65       4.31      38.95        1.44   842.47   0.952
  sub70                     40.90       0.00       0.00       6.06      26.82       7.85      34.67        1.00   453.97   0.848
  sub71                     40.90       0.00       0.00       1.17      36.29       2.10      38.39        1.00   613.98   0.939
  sub72                     40.90       0.00       0.00       1.05      36.63       1.82      38.44        0.53   295.86   0.940
  
  
  ******************
  Node Depth Summary
  ******************
  
  ---------------------------------------------------------------------------------
                                 Average  Maximum  Maximum  Time of Max    Reported
                                   Depth    Depth      HGL   Occurrence   Max Depth
  Node                 Type       Meters   Meters   Meters  days hr:min      Meters
  ---------------------------------------------------------------------------------
  WS02003060           JUNCTION     0.21     0.38     5.31     0  03:08        0.38
  WS02003066           JUNCTION     0.17     0.30     5.85     0  03:07        0.30
  WS02003067           JUNCTION     0.46     0.70     6.02     0  03:07        0.70
  WS02003069           JUNCTION     0.23     0.43     5.01     0  03:08        0.43
  WS02003072           JUNCTION     0.29     0.50     4.87     0  03:09        0.50
  WS02003073           JUNCTION     0.16     0.30     4.36     0  03:09        0.30
  WS02004401           JUNCTION     0.56     0.87     6.87     0  03:04        0.87
  WS02004402           JUNCTION     0.59     0.90     6.86     0  03:05        0.90
  WS02004403           JUNCTION     0.61     0.92     6.85     0  03:05        0.92
  WS02004404           JUNCTION     0.68     1.01     6.86     0  03:05        1.00
  WS02004405           JUNCTION     0.67     0.96     6.81     0  03:05        0.96
  WS02004406           JUNCTION     0.68     0.96     6.79     0  03:05        0.96
  WS02004407           JUNCTION     0.16     0.30     6.61     0  03:05        0.30
  WS02004409           JUNCTION     0.35     0.67     6.44     0  03:06        0.67
  WS02004410           JUNCTION     0.38     0.68     6.40     0  03:06        0.68
  WS02004411           JUNCTION     0.40     0.69     6.37     0  03:06        0.69
  WS02004412           JUNCTION     0.42     0.70     6.34     0  03:07        0.70
  WS02004413           JUNCTION     0.57     0.86     6.33     0  03:07        0.86
  WS02006109           JUNCTION     0.63     1.32     7.93     0  02:17        1.06
  WS02006110           JUNCTION     0.63     1.50     8.08     0  02:44        1.05
  WS02006111           JUNCTION     0.17     0.29     6.99     0  02:57        0.29
  WS02006112           JUNCTION     0.72     1.13     7.01     0  03:13        1.07
  WS02006113           JUNCTION     0.25     0.46     7.35     0  02:56        0.45
  WS02006115           JUNCTION     0.45     0.77     6.91     0  03:04        0.77
  WS02006116           JUNCTION     0.53     0.85     6.89     0  03:05        0.85
  WS02006228           JUNCTION     0.62     1.23     7.89     0  02:17        1.13
  WS02006229           JUNCTION     0.60     1.20     7.89     0  02:48        1.15
  WS02006230           JUNCTION     0.60     1.40     8.15     0  02:48        1.26
  WS02006231           JUNCTION     0.41     2.21     9.33     0  02:45        1.07
  WS02006232           JUNCTION     0.54     1.93     8.97     0  02:45        1.30
  WS02006234           JUNCTION     0.47     1.96     9.12     0  02:35        1.34
  WS02006235           JUNCTION     0.51     2.00     9.16     0  02:17        1.42
  WS02006238           JUNCTION     0.53     2.15     9.29     0  02:22        1.46
  WS02006239           JUNCTION     0.50     2.03     9.24     0  02:17        1.50
  WS02006240           JUNCTION     0.47     1.89     9.18     0  02:17        1.48
  WS02006242           JUNCTION     0.53     1.55     8.82     0  02:17        1.55
  WS02006243           JUNCTION     0.45     1.46     8.88     0  02:25        1.43
  WS02006245           JUNCTION     0.45     1.37     8.85     0  02:25        1.32
  WS02006247           JUNCTION     0.47     1.45     8.95     0  02:05        1.26
  WS02006248           JUNCTION     0.44     1.10     8.69     0  02:13        1.10
  WS02006249           JUNCTION     0.46     1.09     8.69     0  02:06        1.09
  WS02006251           JUNCTION     0.46     1.63     9.30     0  02:06        1.31
  WS02006252           JUNCTION     0.29     1.50     9.74     0  00:00        0.87
  WS02006256           JUNCTION     1.05     2.35     9.28     0  00:00        2.35
  WSF200               JUNCTION     0.15     0.29     5.52     0  03:07        0.29
  YS02001580           JUNCTION     0.09     1.05     9.59     0  02:19        0.77
  YS02001583           JUNCTION     0.12     1.00     9.50     0  02:19        0.84
  YS02001586           JUNCTION     0.20     1.13     9.30     0  02:19        1.13
  YS02001590           JUNCTION     0.29     1.38     9.24     0  02:19        1.37
  YS02001593           JUNCTION     0.23     1.30     9.16     0  02:19        1.29
  YS02001596           JUNCTION     0.32     1.66     9.08     0  02:25        1.65
  YS02001600           JUNCTION     0.39     1.86     8.99     0  02:19        1.86
  YS02001601           JUNCTION     0.57     2.06     8.90     0  02:19        2.06
  YS02001602           JUNCTION     0.48     1.87     8.77     0  02:19        1.87
  YS02001605           JUNCTION     0.44     1.78     8.68     0  02:19        1.77
  YS02001607           JUNCTION     0.42     1.65     8.49     0  02:25        1.64
  YS02001610           JUNCTION     0.46     1.68     8.48     0  02:19        1.68
  YS02001613           JUNCTION     0.42     1.66     8.51     0  02:19        1.66
  YS02001616           JUNCTION     0.36     1.59     8.50     0  02:23        1.58
  YS02001619           JUNCTION     0.33     1.59     8.52     0  02:25        1.59
  YS02001622           JUNCTION     0.32     1.56     8.47     0  02:25        1.56
  YS02001625           JUNCTION     0.56     1.78     8.38     0  02:19        1.78
  YS02001629           JUNCTION     0.44     1.85     8.40     0  02:19        1.85
  YS02001633           JUNCTION     0.51     2.04     8.49     0  02:24        2.02
  YS02001641           JUNCTION     0.48     1.96     8.40     0  02:25        1.96
  YS02001644           JUNCTION     0.47     1.92     8.35     0  02:25        1.92
  YS02001647           JUNCTION     0.25     1.75     8.36     0  02:25        1.67
  YS02001649           JUNCTION     0.28     1.92     8.31     0  02:25        1.82
  YS02001652           JUNCTION     0.18     1.87     8.47     0  02:25        1.65
  YS02001655           JUNCTION     0.12     1.87     8.72     0  02:25        1.43
  YS02001658           JUNCTION     0.09     1.88     9.02     0  02:25        1.17
  YS02001661           JUNCTION     0.13     0.95     8.35     0  02:25        0.94
  YS02001664           JUNCTION     0.05     0.37     8.30     0  02:26        0.31
  YS02001745           JUNCTION     0.05     0.65     8.17     0  02:25        0.63
  YS02001748           JUNCTION     0.07     1.48     8.56     0  02:25        0.99
  YS02001751           JUNCTION     0.09     1.49     8.37     0  02:25        1.18
  YS02001754           JUNCTION     0.13     1.61     8.21     0  02:25        1.45
  YS02001757           JUNCTION     0.28     1.86     8.12     0  02:25        1.79
  YS02001759           JUNCTION     0.22     1.81     8.18     0  02:25        1.75
  YS02001762           JUNCTION     0.22     1.82     8.22     0  02:25        1.73
  YS02001765           JUNCTION     0.20     1.80     8.25     0  02:25        1.69
  YS02001767           JUNCTION     0.20     1.81     8.30     0  02:25        1.68
  YS02001770           JUNCTION     0.21     1.88     8.37     0  02:25        1.72
  YS02001774           JUNCTION     0.27     1.95     8.38     0  02:25        1.85
  YS02001779           JUNCTION     0.11     1.68     8.37     0  02:23        1.68
  YS02001783           JUNCTION     0.25     1.32     7.46     0  02:22        1.24
  YS02001784           JUNCTION     0.26     1.17     7.24     0  02:22        1.11
  YS02001786           JUNCTION     0.22     0.92     6.95     0  02:22        0.87
  YS02001788           JUNCTION     0.16     0.62     6.60     0  02:23        0.62
  YS02001790           JUNCTION     0.19     0.72     6.37     0  02:25        0.71
  YS02001791           JUNCTION     0.12     0.44     5.91     0  02:25        0.43
  YS02001793           JUNCTION     0.06     0.25     5.08     0  02:25        0.25
  YS02001882           JUNCTION     0.31     1.73     8.45     0  02:21        1.65
  YS02001884           JUNCTION     0.39     1.82     8.43     0  02:21        1.72
  YS02001887           JUNCTION     0.46     1.85     8.39     0  02:21        1.81
  YS02001890           JUNCTION     0.49     1.81     8.32     0  02:21        1.81
  YS02001895           JUNCTION     0.28     1.57     8.31     0  02:24        1.56
  YS02001898           JUNCTION     0.29     1.56     8.30     0  02:23        1.56
  YS02001901           JUNCTION     0.39     1.68     8.29     0  02:23        1.67
  YS02001904           JUNCTION     0.37     1.64     8.27     0  02:25        1.63
  YS02001907           JUNCTION     0.67     1.96     8.25     0  02:22        1.96
  YS02001910           JUNCTION     0.48     1.98     8.48     0  02:23        1.84
  YS02001915           JUNCTION     0.31     1.92     8.64     0  02:23        1.69
  YS02001918           JUNCTION     0.17     1.81     8.88     0  02:23        1.39
  YS02001920           JUNCTION     0.25     2.14     9.15     0  02:23        1.47
  YS02001923           JUNCTION     0.12     2.03     9.29     0  02:23        1.25
  YS02001926           JUNCTION     0.16     1.90     9.35     0  02:23        1.11
  YS02001929           JUNCTION     0.08     1.78     9.47     0  02:23        0.94
  YS02006553           JUNCTION     0.67     1.98     8.26     0  02:23        1.97
  YS02006556           JUNCTION     0.65     1.98     8.29     0  02:22        1.94
  YS02006558           JUNCTION     0.69     2.03     8.30     0  02:22        1.98
  YS02006561           JUNCTION     0.15     1.01     7.67     0  02:22        0.90
  YS02163301           JUNCTION     0.46     1.94     8.46     0  02:25        1.94
  YS02163601           JUNCTION     0.54     2.04     8.44     0  02:24        2.03
  YS02164001           JUNCTION     0.47     1.96     8.42     0  02:25        1.95
  CC-1                 OUTFALL      0.00     0.00     0.00     0  00:00        0.00
  CC-2                 OUTFALL      0.00     0.00     0.00     0  00:00        0.00
  JK-1                 OUTFALL      0.00     0.00     0.00     0  00:00        0.00
  JK-2                 OUTFALL      0.00     0.00     0.00     0  00:00        0.00
  WSC                  OUTFALL      0.16     0.30     0.97     0  03:09        0.30
  CC-storage           STORAGE      0.25     0.80     6.30     0  00:00        0.76
  JK-storage           STORAGE      0.18     2.99     3.79     0  00:00        0.68
  
  
  *******************
  Node Inflow Summary
  *******************
  
  -------------------------------------------------------------------------------------------------
                                  Maximum  Maximum                  Lateral       Total        Flow
                                  Lateral    Total  Time of Max      Inflow      Inflow     Balance
                                   Inflow   Inflow   Occurrence      Volume      Volume       Error
  Node                 Type           LPS      LPS  days hr:min    10^6 ltr    10^6 ltr     Percent
  -------------------------------------------------------------------------------------------------
  WS02003060           JUNCTION     16.53   552.19     0  03:08       0.471        4.25       0.048
  WS02003066           JUNCTION      0.00   535.59     0  03:07           0        3.78       0.039
  WS02003067           JUNCTION      0.00   535.58     0  03:07           0        3.78       0.108
  WS02003069           JUNCTION      0.32   552.42     0  03:08     0.00912        4.26       0.090
  WS02003072           JUNCTION      0.00   552.35     0  03:08           0        4.25       0.166
  WS02003073           JUNCTION      1.82   554.11     0  03:09      0.0519         4.3       0.129
  WS02004401           JUNCTION      0.00   542.72     0  03:07           0        3.88       0.265
  WS02004402           JUNCTION      0.00   539.89     0  03:08           0        3.87       0.269
  WS02004403           JUNCTION      0.00   538.76     0  02:57           0        3.86       0.262
  WS02004404           JUNCTION      0.16   547.64     0  03:01     0.00462        3.86       0.205
  WS02004405           JUNCTION      0.04   596.71     0  03:05     0.00109        3.85       0.265
  WS02004406           JUNCTION      0.00   540.22     0  03:05           0        3.84       0.547
  WS02004407           JUNCTION      0.00   536.22     0  03:05           0        3.82       0.027
  WS02004409           JUNCTION      0.00   536.00     0  03:05           0        3.82       0.067
  WS02004410           JUNCTION      0.00   535.86     0  03:06           0        3.81       0.115
  WS02004411           JUNCTION      0.00   535.77     0  03:06           0        3.81       0.145
  WS02004412           JUNCTION      0.00   535.66     0  03:06           0         3.8       0.192
  WS02004413           JUNCTION      0.00   535.69     0  03:07           0         3.8       0.357
  WS02006109           JUNCTION      1.23   561.33     0  02:50      0.0351        3.93       0.198
  WS02006110           JUNCTION      0.00   563.15     0  02:50           0        3.92       0.164
  WS02006111           JUNCTION      0.00   565.05     0  02:56           0        3.91       0.026
  WS02006112           JUNCTION      0.00   543.00     0  02:59           0        3.91       0.525
  WS02006113           JUNCTION      0.00   575.39     0  02:56           0        3.91       0.049
  WS02006115           JUNCTION      0.00   546.36     0  02:13           0        3.89       0.181
  WS02006116           JUNCTION      0.00   539.78     0  02:57           0        3.88       0.044
  WS02006228           JUNCTION      0.00   558.27     0  02:50           0        3.89       0.059
  WS02006229           JUNCTION      0.00   557.64     0  02:56           0         3.9       0.163
  WS02006230           JUNCTION     10.28   604.24     0  02:17       0.293         3.9       0.040
  WS02006231           JUNCTION      0.00   589.64     0  03:15           0        3.61      -0.057
  WS02006232           JUNCTION      0.00   587.61     0  03:15           0        3.62       0.407
  WS02006234           JUNCTION      0.00   579.42     0  03:15           0         3.6      -0.512
  WS02006235           JUNCTION      0.00   574.22     0  02:45           0        3.76       0.468
  WS02006238           JUNCTION      0.00   425.43     0  04:10           0        2.78      -0.139
  WS02006239           JUNCTION      0.00   426.79     0  04:10           0        2.69      -0.112
  WS02006240           JUNCTION      0.00   425.75     0  04:10           0        2.62      -0.031
  WS02006242           JUNCTION      0.00   425.57     0  04:10           0        2.58      -0.096
  WS02006243           JUNCTION      0.00   424.83     0  04:10           0        2.55      -0.244
  WS02006245           JUNCTION      0.00   424.81     0  04:10           0        2.56       0.466
  WS02006247           JUNCTION      0.00   426.17     0  04:10           0        2.56       0.018
  WS02006248           JUNCTION      0.00   425.14     0  03:10           0        2.57       0.164
  WS02006249           JUNCTION      0.00   461.36     0  02:01           0        2.76       0.377
  WS02006251           JUNCTION      0.08   410.00     0  02:06     0.00219        2.76      -0.039
  WS02006252           JUNCTION      0.00   400.00     0  00:00           0        2.75      -0.045
  WS02006256           JUNCTION      0.00   322.71     0  02:36           0        1.51      -3.799
  WSF200               JUNCTION      0.00   535.60     0  03:07           0        3.78       0.010
  YS02001580           JUNCTION      0.00   118.49     0  02:19           0     0.00403      -2.853
  YS02001583           JUNCTION      0.00   158.00     0  02:19           0      0.0151      -3.946
  YS02001586           JUNCTION    453.97   454.14     0  02:26           1        1.01       0.130
  YS02001590           JUNCTION      0.00   318.44     0  02:28           0       0.938      -0.033
  YS02001593           JUNCTION      0.00   318.22     0  02:28           0       0.938       0.028
  YS02001596           JUNCTION      0.00   317.96     0  02:29           0       0.938      -0.001
  YS02001600           JUNCTION      0.00   317.96     0  02:23           0       0.938       0.027
  YS02001601           JUNCTION    842.47  1159.90     0  02:26        1.44        2.38       0.041
  YS02001602           JUNCTION      0.00   513.50     0  02:19           0         1.8       0.029
  YS02001605           JUNCTION      0.00   512.93     0  02:19           0        1.76       0.038
  YS02001607           JUNCTION      0.00   512.50     0  02:19           0        1.76       0.118
  YS02001610           JUNCTION      0.00   513.60     0  02:19           0        1.75       0.144
  YS02001613           JUNCTION      0.00   514.75     0  02:18           0        1.61       0.116
  YS02001616           JUNCTION      0.00   512.78     0  02:41           0        1.61       0.035
  YS02001619           JUNCTION    809.59   934.11     0  02:22        1.59        3.19       0.006
  YS02001622           JUNCTION      0.00   932.68     0  02:22           0        3.19       0.009
  YS02001625           JUNCTION      0.00   932.40     0  02:22           0        3.19       0.279
  YS02001629           JUNCTION      0.00   932.27     0  02:22           0        2.94       0.025
  YS02001633           JUNCTION    632.40  1402.23     0  02:22        1.04        3.98       0.088
  YS02001641           JUNCTION      0.00  1403.00     0  02:22           0        3.98       0.074
  YS02001644           JUNCTION    565.54  1828.11     0  02:22       0.898        4.87       0.070
  YS02001647           JUNCTION      0.00  1831.40     0  02:22           0        4.85       0.009
  YS02001649           JUNCTION      0.00  2126.11     0  02:22           0        5.66       0.009
  YS02001652           JUNCTION      0.00   633.08     0  02:26           0       0.805      -0.112
  YS02001655           JUNCTION      0.15   632.67     0  02:26     0.00439       0.806       0.052
  YS02001658           JUNCTION      0.00   686.82     0  02:25           0       0.801      -0.078
  YS02001661           JUNCTION      0.00   667.07     0  02:26           0       0.801       0.034
  YS02001664           JUNCTION    559.10   559.10     0  02:25       0.801       0.801      -0.010
  YS02001745           JUNCTION    363.78   363.78     0  02:25       0.499       0.499       0.190
  YS02001748           JUNCTION      0.04   567.01     0  02:25     0.00128       0.499      -0.339
  YS02001751           JUNCTION      0.01   473.70     0  02:28    0.000313       0.504       0.097
  YS02001754           JUNCTION      0.26   457.04     0  02:28     0.00741       0.515      -0.187
  YS02001757           JUNCTION      0.00  3325.33     0  02:26           0        7.93       0.029
  YS02001759           JUNCTION    504.22  1213.37     0  02:25       0.685        1.76      -0.005
  YS02001762           JUNCTION      0.00   715.06     0  02:25           0        1.07       0.027
  YS02001765           JUNCTION      0.00   713.46     0  02:25           0        1.07       0.038
  YS02001767           JUNCTION      0.54   712.26     0  02:25      0.0152        1.07       0.004
  YS02001770           JUNCTION    702.87   706.45     0  02:25        1.06         1.1       0.023
  YS02001774           JUNCTION      0.00   295.37     0  02:23           0      0.0603       1.969
  YS02001779           JUNCTION      0.01   296.76     0  02:23    0.000142      0.0184      -1.342
  YS02001783           JUNCTION      0.00  1155.63     0  02:24           0        2.98       0.008
  YS02001784           JUNCTION      1.06  1157.03     0  02:23      0.0302        3.01       0.019
  YS02001786           JUNCTION      0.06  1156.82     0  02:24      0.0016        3.01       0.024
  YS02001788           JUNCTION      0.07  1158.17     0  02:24     0.00202        3.01       0.009
  YS02001790           JUNCTION      0.15  1175.80     0  02:23     0.00442        3.01       0.015
  YS02001791           JUNCTION      0.00  1279.47     0  02:25           0        3.01      -0.008
  YS02001793           JUNCTION      0.00  1232.58     0  02:27           0        3.01      -0.012
  YS02001882           JUNCTION      0.00    43.45     0  02:21           0      0.0126       5.155
  YS02001884           JUNCTION      0.00    70.73     0  02:20           0      0.0484       5.652
  YS02001887           JUNCTION    550.73   551.36     0  02:25        0.73       0.763       0.587
  YS02001890           JUNCTION      0.00   551.49     0  02:25           0       0.722       0.718
  YS02001895           JUNCTION      0.00   510.94     0  02:26           0       0.712       0.193
  YS02001898           JUNCTION      0.00   510.30     0  02:26           0       0.711       0.069
  YS02001901           JUNCTION      0.00   510.96     0  02:26           0       0.713       0.457
  YS02001904           JUNCTION      0.00   511.01     0  02:26           0       0.716       0.395
  YS02001907           JUNCTION      0.00  1520.10     0  02:24           0        2.32       0.785
  YS02001910           JUNCTION      0.00  1023.93     0  02:24           0        1.61       0.445
  YS02001915           JUNCTION    614.00  1023.80     0  02:24           1        1.65       0.096
  YS02001918           JUNCTION      0.00   443.28     0  02:24           0       0.677       0.035
  YS02001920           JUNCTION      2.87   442.36     0  02:24      0.0818        0.66       0.156
  YS02001923           JUNCTION      0.04   409.59     0  02:24     0.00107       0.562      -0.120
  YS02001926           JUNCTION      0.05   525.52     0  02:23     0.00149       0.542       0.013
  YS02001929           JUNCTION    295.86   331.56     0  02:23       0.528        0.53      -0.086
  YS02006553           JUNCTION      0.00   795.85     0  02:35           0        1.96       0.611
  YS02006556           JUNCTION      0.00   796.17     0  02:35           0        1.97       0.418
  YS02006558           JUNCTION    723.55  1173.37     0  02:22        1.06        3.01       0.112
  YS02006561           JUNCTION      0.00  1175.04     0  02:22           0        2.98      -0.002
  YS02163301           JUNCTION      0.00   932.65     0  02:22           0        2.94       0.055
  YS02163601           JUNCTION      0.11  1402.04     0  02:22     0.00313        3.98       0.127
  YS02164001           JUNCTION      0.00  1402.28     0  02:22           0        3.97       0.059
  CC-1                 OUTFALL       0.00   683.00     0  00:00           0         3.5       0.000
  CC-2                 OUTFALL       0.00   683.00     0  00:00           0         3.5       0.000
  JK-1                 OUTFALL       0.00  1000.00     0  00:00           0       0.843       0.000
  JK-2                 OUTFALL       0.00  1000.00     0  00:00           0       0.843       0.000
  WSC                  OUTFALL       0.00   554.00     0  03:09           0        4.29       0.000
  CC-storage           STORAGE       0.00  3324.72     0  02:26           0        10.2      -0.391
  JK-storage           STORAGE       0.00  1343.60     0  02:25           0        3.17      -0.774
  
  
  **********************
  Node Surcharge Summary
  **********************
  
  Surcharging occurs when water rises above the top of the highest conduit.
  ---------------------------------------------------------------------
                                               Max. Height   Min. Depth
                                   Hours       Above Crown    Below Rim
  Node                 Type      Surcharged         Meters       Meters
  ---------------------------------------------------------------------
  WS02004404           JUNCTION        0.01          0.011        2.769
  WS02006109           JUNCTION        1.42          0.496        1.324
  WS02006110           JUNCTION        0.42          0.586        1.264
  WS02006112           JUNCTION        1.02          0.128        1.552
  WS02006228           JUNCTION        1.39          0.404        1.796
  WS02006229           JUNCTION        1.45          0.397        2.053
  WS02006230           JUNCTION        0.46          0.321        1.249
  WS02006231           JUNCTION        0.82          1.500        0.030
  WS02006232           JUNCTION        1.57          1.230        0.250
  WS02006234           JUNCTION        1.04          1.240        0.000
  WS02006235           JUNCTION        1.31          1.290        0.000
  WS02006238           JUNCTION        1.46          1.430        0.000
  WS02006239           JUNCTION        1.41          1.290        0.000
  WS02006240           JUNCTION        1.47          1.179        0.211
  WS02006242           JUNCTION        1.60          0.820        0.000
  WS02006243           JUNCTION        1.49          0.749        0.021
  WS02006245           JUNCTION        1.48          0.659        0.191
  WS02006247           JUNCTION        1.51          0.741        0.019
  WS02006248           JUNCTION        1.47          0.380        0.000
  WS02006249           JUNCTION        1.49          0.390        0.000
  WS02006251           JUNCTION        1.05          0.600        0.580
  WS02006252           JUNCTION        1.91          1.100        0.000
  WS02006256           JUNCTION        5.34          2.050        0.000
  YS02001580           JUNCTION        0.33          0.450        0.000
  YS02001583           JUNCTION        0.33          0.361        0.139
  YS02001586           JUNCTION        0.43          0.510        0.000
  YS02001590           JUNCTION        0.49          0.728        0.022
  YS02001593           JUNCTION        0.50          0.675        0.165
  YS02001596           JUNCTION        0.59          0.927        0.143
  YS02001600           JUNCTION        0.72          1.185        0.005
  YS02001601           JUNCTION        1.04          1.440        0.000
  YS02001602           JUNCTION        0.94          1.270        0.000
  YS02001605           JUNCTION        0.89          1.180        0.000
  YS02001607           JUNCTION        0.44          0.645        0.035
  YS02001610           JUNCTION        0.46          0.680        0.000
  YS02001613           JUNCTION        0.43          0.664        0.036
  YS02001616           JUNCTION        0.39          0.590        0.020
  YS02001619           JUNCTION        0.38          0.587        0.023
  YS02001622           JUNCTION        0.37          0.561        0.059
  YS02001625           JUNCTION        0.54          0.780        0.000
  YS02001629           JUNCTION        0.30          0.470        0.000
  YS02001633           JUNCTION        0.55          1.015        0.045
  YS02001641           JUNCTION        0.45          0.960        0.140
  YS02001644           JUNCTION        0.39          0.920        0.000
  YS02001647           JUNCTION        0.20          0.745        0.155
  YS02001649           JUNCTION        0.23          0.922        0.128
  YS02001652           JUNCTION        0.15          0.839        0.291
  YS02001655           JUNCTION        0.09          0.870        0.330
  YS02001658           JUNCTION        0.03          0.881        0.419
  YS02001748           JUNCTION        0.01          0.400        0.790
  YS02001751           JUNCTION        0.05          0.488        0.712
  YS02001754           JUNCTION        0.09          0.557        0.593
  YS02001757           JUNCTION        0.21          0.864        0.346
  YS02001759           JUNCTION        0.18          0.814        0.396
  YS02001762           JUNCTION        0.17          0.815        0.335
  YS02001765           JUNCTION        0.15          0.801        0.299
  YS02001767           JUNCTION        0.15          0.806        0.224
  YS02001770           JUNCTION        0.14          0.847        0.073
  YS02001774           JUNCTION        0.17          0.954        0.096
  YS02001779           JUNCTION        0.11          0.680        0.000
  YS02001783           JUNCTION        0.34          0.516        1.084
  YS02001784           JUNCTION        0.32          0.370        1.120
  YS02001786           JUNCTION        0.22          0.116        1.314
  YS02001882           JUNCTION        0.29          0.732        0.098
  YS02001884           JUNCTION        0.30          0.755        0.115
  YS02001887           JUNCTION        0.33          0.804        0.146
  YS02001890           JUNCTION        0.34          0.760        0.000
  YS02001895           JUNCTION        0.28          0.565        0.185
  YS02001898           JUNCTION        0.27          0.535        0.205
  YS02001901           JUNCTION        0.32          0.678        0.192
  YS02001904           JUNCTION        0.31          0.639        0.211
  YS02001907           JUNCTION        0.53          0.950        0.000
  YS02001910           JUNCTION        0.36          0.975        0.125
  YS02001915           JUNCTION        0.29          0.917        0.083
  YS02001918           JUNCTION        0.21          0.810        0.000
  YS02001920           JUNCTION        0.23          1.138        0.002
  YS02001923           JUNCTION        0.01          0.820        0.000
  YS02001926           JUNCTION        0.01          0.900        0.000
  YS02001929           JUNCTION        0.01          0.780        0.000
  YS02006553           JUNCTION        0.54          0.978        0.212
  YS02006556           JUNCTION        0.44          0.940        0.410
  YS02006558           JUNCTION        0.43          0.928        0.472
  YS02006561           JUNCTION        0.18          0.206        0.944
  YS02163301           JUNCTION        0.53          0.939        0.091
  YS02163601           JUNCTION        0.57          1.044        0.036
  YS02164001           JUNCTION        0.46          0.963        0.137
  
  
  *********************
  Node Flooding Summary
  *********************
  
  Flooding refers to all water that overflows a node, whether it ponds or not.
  --------------------------------------------------------------------------
                                                             Total   Maximum
                                 Maximum   Time of Max       Flood    Ponded
                        Hours       Rate    Occurrence      Volume     Depth
  Node                 Flooded       LPS   days hr:min    10^6 ltr    Meters
  --------------------------------------------------------------------------
  WS02006234              0.01    153.36      0  02:45       0.000     0.000
  WS02006235              0.01     31.86      0  02:17       0.000     0.000
  WS02006238              0.01     17.12      0  02:22       0.000     0.000
  WS02006239              0.01      7.16      0  02:17       0.000     0.000
  WS02006242              0.01     33.25      0  02:17       0.001     0.000
  WS02006248              0.12     30.43      0  02:21       0.006     0.000
  WS02006249              0.95    107.89      0  02:06       0.180     0.000
  WS02006252              0.01    245.63      0  00:00       0.000     0.000
  WS02006256              1.39    296.84      0  02:36       0.497     0.000
  YS02001580              0.01     93.83      0  02:19       0.000     0.000
  YS02001586              0.23    136.72      0  02:26       0.063     0.000
  YS02001601              0.37    762.06      0  02:26       0.575     0.000
  YS02001602              0.24     61.99      0  02:27       0.046     0.000
  YS02001605              0.01      2.48      0  02:19       0.000     0.000
  YS02001610              0.20    302.05      0  02:27       0.145     0.000
  YS02001625              0.16    840.81      0  02:26       0.243     0.000
  YS02001629              0.04    137.87      0  02:19       0.004     0.000
  YS02001644              0.03     94.00      0  02:26       0.005     0.000
  YS02001779              0.01    241.97      0  02:23       0.002     0.000
  YS02001890              0.06     48.14      0  02:25       0.005     0.000
  YS02001907              0.17   1063.45      0  02:24       0.349     0.000
  YS02001918              0.01    172.92      0  02:23       0.002     0.000
  YS02001923              0.01    103.07      0  02:23       0.000     0.000
  YS02001926              0.01    445.87      0  02:23       0.001     0.000
  YS02001929              0.01    154.61      0  02:23       0.001     0.000
  
  
  **********************
  Storage Volume Summary
  **********************
  
  ------------------------------------------------------------------------------------------------
                         Average    Avg   Evap  Exfil     Maximum    Max    Time of Max    Maximum
                          Volume   Pcnt   Pcnt   Pcnt      Volume   Pcnt     Occurrence    Outflow
  Storage Unit           1000 m³   Full   Loss   Loss     1000 m³   Full    days hr:min        LPS
  ------------------------------------------------------------------------------------------------
  CC-storage               0.689   10.7    0.0    0.0       2.229   34.8       0  00:00    1783.53
  JK-storage               0.009    3.1    0.0    0.0       0.150   51.6       0  00:00    2300.00
  
  
  ***********************
  Outfall Loading Summary
  ***********************
  
  -----------------------------------------------------------
                         Flow       Avg       Max       Total
                         Freq      Flow      Flow      Volume
  Outfall Node           Pcnt       LPS       LPS    10^6 ltr
  -----------------------------------------------------------
  CC-1                  35.39    683.00    683.00       3.495
  CC-2                  35.39    683.00    683.00       3.495
  JK-1                   6.02   1000.00   1000.00       0.843
  JK-2                   6.02   1000.00   1000.00       0.843
  WSC                   99.93    221.43    554.00       4.291
  -----------------------------------------------------------
  System                36.55   3587.43   3903.76      12.967
  
  
  ********************
  Link Flow Summary
  ********************
  
  -----------------------------------------------------------------------------
                                 Maximum  Time of Max   Maximum    Max/    Max/
                                  |Flow|   Occurrence   |Veloc|    Full    Full
  Link                 Type          LPS  days hr:min     m/sec    Flow   Depth
  -----------------------------------------------------------------------------
  1                    CONDUIT    554.00     0  03:09      2.83    0.19    0.30
  WS02003060WS02003069 CONDUIT    552.10     0  03:08      1.64    0.22    0.34
  WS02003066WSF200     CONDUIT    535.60     0  03:07      2.85    0.09    0.22
  WS02003067WS02003066 CONDUIT    535.59     0  03:07      1.21    0.17    0.42
  WS02003069WS02003072 CONDUIT    552.35     0  03:08      1.37    0.27    0.39
  WS02003072WS02003073 CONDUIT    552.29     0  03:09      1.43    1.19    0.37
  WS02004401WS02004402 CONDUIT    539.89     0  03:08      1.22    0.65    0.89
  WS02004402WS02004403 CONDUIT    538.76     0  02:57      1.24    0.77    0.91
  WS02004403WS02004404 CONDUIT    547.48     0  03:01      1.24    0.40    0.96
  WS02004404WS02004405 CONDUIT    596.68     0  03:05      1.45    5.85    0.97
  WS02004405WS02004406 CONDUIT    540.22     0  03:05      1.46    1.07    0.96
  WS02004406WS02004407 CONDUIT    536.22     0  03:05      1.04    0.24    0.63
  WS02004407WS02004409 CONDUIT    536.00     0  03:05      1.59    0.19    0.48
  WS02004409WS02004410 CONDUIT    535.86     0  03:06      1.06    0.69    0.67
  WS02004410WS02004411 CONDUIT    535.77     0  03:06      1.13    0.73    0.69
  WS02004411WS02004412 CONDUIT    535.66     0  03:06      1.20    0.76    0.69
  WS02004412WS02004413 CONDUIT    535.69     0  03:07      1.22    0.36    0.78
  WS02004413WS02003067 CONDUIT    535.58     0  03:07      1.11    0.23    0.59
  WS02006109WS02006110 CONDUIT    563.15     0  02:50      1.12    1.08    1.00
  WS02006110WS02006113 CONDUIT    575.39     0  02:56      1.38    0.52    0.79
  WS02006111WS02006112 CONDUIT    543.00     0  02:59      1.95    0.26    0.67
  WS02006112WS02006115 CONDUIT    546.36     0  02:13      0.86    0.32    0.88
  WS02006113WS02006111 CONDUIT    565.05     0  02:56      2.48    0.68    0.46
  WS02006115WS02006116 CONDUIT    539.78     0  02:57      1.29    0.69    0.78
  WS02006116WS02004401 CONDUIT    542.72     0  03:07      1.21    0.75    0.86
  WS02006228WS02006109 CONDUIT    560.10     0  02:50      1.11    2.45    1.00
  WS02006229WS02006228 CONDUIT    558.27     0  02:50      1.12    1.85    1.00
  WS02006230WS02006229 CONDUIT    557.64     0  02:56      1.45   12.41    1.00
  WS02006231WS02006230 CONDUIT    593.97     0  02:17      1.60    9.01    1.00
  WS02006232WS02006231 CONDUIT    589.64     0  03:15      1.55    1.24    1.00
  WS02006234WS02006232 CONDUIT    587.61     0  03:15      1.53    1.19    1.00
  WS02006235WS02006234 CONDUIT    579.42     0  03:15      1.51    6.11    1.00
  WS02006238WS02006235 CONDUIT    426.14     0  03:09      1.45    0.95    1.00
  WS02006239WS02006238 CONDUIT    425.43     0  04:10      1.11    1.36    1.00
  WS02006240WS02006239 CONDUIT    426.79     0  04:10      1.27    1.34    1.00
  WS02006242WS02006240 CONDUIT    425.75     0  04:10      1.16    1.69    1.00
  WS02006243WS02006242 CONDUIT    425.57     0  04:10      1.38    0.91    1.00
  WS02006245WS02006243 CONDUIT    424.83     0  04:10      1.45    1.26    1.00
  WS02006247WS02006245 CONDUIT    424.81     0  04:10      1.43    3.37    1.00
  WS02006248WS02006247 CONDUIT    426.17     0  04:10      1.44    0.93    1.00
  WS02006249WS02006248 CONDUIT    425.14     0  03:10      1.39    2.33    1.00
  WS02006251WS02006249 CONDUIT    461.36     0  02:01      1.99    1.33    1.00
  WS02006252WS02006251 CONDUIT    409.93     0  02:06      5.34    1.50    1.00
  WS02006256WS02006235 CONDUIT    288.91     0  00:00      4.23    3.06    1.00
  WSF200WS02003060     CONDUIT    535.66     0  03:08      2.06    0.12    0.28
  YS02001580YS02001583 CONDUIT    118.49     0  02:19      0.65    0.46    1.00
  YS02001583YS02001586 CONDUIT    158.00     0  02:19      0.66    0.24    1.00
  YS02001586YS02001590 CONDUIT    318.44     0  02:28      1.25    0.56    1.00
  YS02001590YS02001593 CONDUIT    318.22     0  02:28      1.13    2.00    1.00
  YS02001593YS02001596 CONDUIT    317.96     0  02:29      1.73    0.50    1.00
  YS02001596YS02001600 CONDUIT    317.96     0  02:23      1.23    0.62    1.00
  YS02001600YS02001601 CONDUIT    317.99     0  02:28      1.12    0.55    1.00
  YS02001601YS02001602 CONDUIT    513.50     0  02:19      1.82    1.85    1.00
  YS02001602YS02001605 CONDUIT    512.93     0  02:19      1.81   10.85    1.00
  YS02001605YS02001607 CONDUIT    512.50     0  02:19      1.81    2.81    1.00
  YS02001607YS02001610 CONDUIT    513.60     0  02:19      0.65    0.49    1.00
  YS02001610YS02001613 CONDUIT    514.75     0  02:18      0.66    0.59    1.00
  YS02001613YS02001616 CONDUIT    512.78     0  02:41      0.65    0.44    1.00
  YS02001616YS02001619 CONDUIT    513.72     0  02:41      0.69    0.89    1.00
  YS02001619YS02001622 CONDUIT    932.68     0  02:22      1.19    1.37    1.00
  YS02001622YS02001625 CONDUIT    932.40     0  02:22      1.19    0.50    1.00
  YS02001625YS02001629 CONDUIT    932.27     0  02:22      1.19    0.44    1.00
  YS02001629YS02163301 CONDUIT    932.65     0  02:22      1.19    1.15    1.00
  YS02001633YS02163601 CONDUIT   1401.93     0  02:22      1.78    1.47    1.00
  YS02001641YS02001644 CONDUIT   1403.07     0  02:22      1.79    4.54    1.00
  YS02001644YS02001647 CONDUIT   1831.40     0  02:22      2.34    1.08    1.00
  YS02001647YS02001649 CONDUIT   1846.14     0  02:22      2.36    0.97    1.00
  YS02001649YS02001757 CONDUIT   2125.03     0  02:22      2.71    1.29    1.00
  YS02001652YS02001649 CONDUIT    633.02     0  02:26      0.81    0.31    1.00
  YS02001655YS02001652 CONDUIT    633.08     0  02:26      1.27    0.31    1.00
  YS02001658YS02001655 CONDUIT    632.52     0  02:26      1.91    0.27    1.00
  YS02001661YS02001658 CONDUIT    686.82     0  02:25      2.36    0.27    0.94
  YS02001664YS02001661 CONDUIT    667.07     0  02:26      2.36    0.21    0.63
  YS02001745YS02001748 CONDUIT    566.97     0  02:25      2.23    0.22    0.77
  YS02001748YS02001751 CONDUIT    473.69     0  02:28      1.74    0.24    1.00
  YS02001751YS02001754 CONDUIT    456.78     0  02:28      1.43    0.22    1.00
  YS02001754YS02001757 CONDUIT    454.32     0  02:28      0.58    0.18    1.00
  YS02001757CaochengTiaoxuchi CONDUIT   3324.72     0  02:26      6.00    1.44    0.79
  YS02001759YS02001757 CONDUIT   1211.81     0  02:25      1.54    0.86    1.00
  YS02001762YS02001759 CONDUIT    716.43     0  02:25      0.91    0.83    1.00
  YS02001765YS02001762 CONDUIT    715.06     0  02:25      0.91    0.67    1.00
  YS02001767YS02001765 CONDUIT    713.46     0  02:25      0.91    0.90    1.00
  YS02001770YS02001767 CONDUIT    711.73     0  02:25      0.91    2.82    1.00
  YS02001774YS02001770 CONDUIT    295.37     0  02:23      0.38    0.19    1.00
  YS02001779YS02001774 CONDUIT    296.75     0  02:23      0.38    0.15    1.00
  YS02001783YS02001784 CONDUIT   1155.97     0  02:23      2.30    1.59    1.00
  YS02001784YS02001785 CONDUIT   1156.76     0  02:24      2.30    2.69    1.00
  YS02001786YS02001788 CONDUIT   1158.09     0  02:24      2.47    2.23    0.89
  YS02001788YS02001790 CONDUIT   1175.64     0  02:23      2.73    0.87    0.83
  YS02001790YS02001791 CONDUIT   1279.47     0  02:25      3.42    1.39    0.70
  YS02001791YS02001793 CONDUIT   1232.58     0  02:27      6.76    0.53    0.42
  YS02001793JiankangQianchi CONDUIT   1343.60     0  02:25     14.87    0.11    0.50
  YS02001882YS02001884 CONDUIT     43.45     0  02:21      0.08    0.05    1.00
  YS02001884YS02001887 CONDUIT     70.73     0  02:20      0.09    0.09    1.00
  YS02001887YS02001890 CONDUIT    551.49     0  02:25      0.70    0.94    1.00
  YS02001890YS02001895 CONDUIT    510.94     0  02:26      0.65    0.24    1.00
  YS02001895YS02001898 CONDUIT    510.30     0  02:26      0.65    0.89    1.00
  YS02001898YS02001901 CONDUIT    510.96     0  02:26      0.65    0.33    1.00
  YS02001901YS02001904 CONDUIT    511.01     0  02:26      0.65    0.79    1.00
  YS02001904YS02001907 CONDUIT    511.15     0  02:26      0.65    0.18    1.00
  YS02001907YS02006553 CONDUIT    795.85     0  02:35      0.88    0.94    1.00
  YS02001910YS02001907 CONDUIT   1024.25     0  02:24      1.30    0.58    1.00
  YS02001915YS02001910 CONDUIT   1023.93     0  02:24      1.30    0.51    1.00
  YS02001918YS02001915 CONDUIT    444.93     0  02:24      0.57    0.25    1.00
  YS02001920YS02001918 CONDUIT    443.28     0  02:24      0.66    0.43    1.00
  YS02001923YS02001920 CONDUIT    439.49     0  02:24      0.69    0.20    1.00
  YS02001926YS02001923 CONDUIT    422.45     0  02:23      0.95    0.60    1.00
  YS02001929YS02001926 CONDUIT    406.43     0  02:24      1.12    0.19    1.00
  YS02006553YS02006556 CONDUIT    796.17     0  02:35      1.01    0.68    1.00
  YS02006556YS02006558 CONDUIT    797.66     0  02:35      1.02    0.63    1.00
  YS02006558YS02006561 CONDUIT   1175.04     0  02:22      4.16    2.60    1.00
  YS02006561YS02001783 CONDUIT   1155.63     0  02:24      2.30    0.60    1.00
  YS02163301YS02001633 CONDUIT    933.29     0  02:22      1.19    0.88    1.00
  YS02163601YS02164001 CONDUIT   1402.28     0  02:22      1.79    1.24    1.00
  YS02164001YS02001641 CONDUIT   1403.00     0  02:22      1.79    1.92    1.00
  CC-R1                PUMP       683.00     0  00:00              1.00
  CC-R2                PUMP       683.00     0  00:00              1.00
  CC-S1                PUMP       200.00     0  00:00              1.00
  CC-S2                PUMP       200.00     0  00:00              1.00
  JK-R1                PUMP      1000.00     0  00:00              1.00
  JK-R2                PUMP      1000.00     0  00:00              1.00
  JK-S                 PUMP       300.00     0  00:00              1.00
  
  
  ***************************
  Flow Classification Summary
  ***************************
  
  -------------------------------------------------------------------------------------
                      Adjusted    ---------- Fraction of Time in Flow Class ---------- 
                       /Actual         Up    Down  Sub   Sup   Up    Down  Norm  Inlet 
  Conduit               Length    Dry  Dry   Dry   Crit  Crit  Crit  Crit  Ltd   Ctrl  
  -------------------------------------------------------------------------------------
  1                       1.00   0.00  0.00  0.00  0.00  1.00  0.00  0.00  0.39  0.00
  WS02003060WS02003069    1.00   0.00  0.00  0.00  0.97  0.03  0.00  0.00  0.78  0.00
  WS02003066WSF200        1.00   0.05  0.00  0.00  0.00  0.95  0.00  0.00  0.84  0.00
  WS02003067WS02003066    1.00   0.05  0.00  0.00  0.95  0.00  0.00  0.00  0.00  0.00
  WS02003069WS02003072    1.00   0.00  0.00  0.00  0.99  0.01  0.00  0.00  0.80  0.00
  WS02003072WS02003073    1.00   0.00  0.00  0.00  0.00  0.00  0.00  1.00  0.00  0.00
  WS02004401WS02004402    1.00   0.02  0.00  0.00  0.98  0.00  0.00  0.00  0.00  0.00
  WS02004402WS02004403    1.00   0.02  0.00  0.00  0.98  0.00  0.00  0.00  0.00  0.00
  WS02004403WS02004404    1.00   0.00  0.03  0.00  0.97  0.00  0.00  0.00  0.00  0.00
  WS02004404WS02004405    1.00   0.00  0.00  0.00  1.00  0.00  0.00  0.00  0.01  0.00
  WS02004405WS02004406    1.00   0.00  0.00  0.00  1.00  0.00  0.00  0.00  0.00  0.00
  WS02004406WS02004407    1.00   0.00  0.03  0.00  0.97  0.00  0.00  0.00  0.00  0.00
  WS02004407WS02004409    1.00   0.03  0.00  0.00  0.95  0.01  0.00  0.00  0.96  0.00
  WS02004409WS02004410    1.00   0.03  0.00  0.00  0.96  0.00  0.00  0.00  0.00  0.00
  WS02004410WS02004411    1.00   0.04  0.00  0.00  0.96  0.00  0.00  0.00  0.00  0.00
  WS02004411WS02004412    1.00   0.04  0.00  0.00  0.96  0.00  0.00  0.00  0.00  0.00
  WS02004412WS02004413    1.00   0.04  0.00  0.00  0.96  0.00  0.00  0.00  0.00  0.00
  WS02004413WS02003067    1.00   0.04  0.01  0.00  0.00  0.00  0.95  0.00  0.00  0.00
  WS02006109WS02006110    1.00   0.00  0.01  0.00  0.98  0.00  0.01  0.00  0.00  0.00
  WS02006110WS02006113    1.00   0.01  0.01  0.00  0.98  0.00  0.00  0.00  0.00  0.00
  WS02006111WS02006112    1.00   0.02  0.00  0.00  0.98  0.00  0.00  0.00  0.98  0.00
  WS02006112WS02006115    1.00   0.02  0.00  0.00  0.97  0.00  0.00  0.00  0.00  0.00
  WS02006113WS02006111    1.00   0.02  0.00  0.00  0.00  0.98  0.00  0.00  0.12  0.00
  WS02006115WS02006116    1.00   0.02  0.00  0.00  0.97  0.00  0.00  0.01  0.00  0.00
  WS02006116WS02004401    1.00   0.02  0.00  0.00  0.98  0.00  0.00  0.00  0.00  0.00
  WS02006228WS02006109    1.00   0.00  0.00  0.00  1.00  0.00  0.00  0.00  0.00  0.00
  WS02006229WS02006228    1.00   0.00  0.00  0.00  0.99  0.00  0.00  0.01  0.00  0.00
  WS02006230WS02006229    1.00   0.00  0.00  0.00  0.99  0.00  0.00  0.01  0.02  0.00
  WS02006231WS02006230    1.00   0.00  0.00  0.00  0.21  0.00  0.78  0.00  0.00  0.00
  WS02006232WS02006231    1.00   0.00  0.00  0.00  0.98  0.00  0.02  0.00  0.00  0.00
  WS02006234WS02006232    1.00   0.00  0.00  0.00  1.00  0.00  0.00  0.00  0.10  0.00
  WS02006235WS02006234    1.00   0.00  0.00  0.00  0.88  0.00  0.12  0.00  0.00  0.00
  WS02006238WS02006235    1.00   0.00  0.00  0.00  0.99  0.01  0.00  0.00  0.00  0.00
  WS02006239WS02006238    1.00   0.00  0.00  0.00  1.00  0.00  0.00  0.00  0.29  0.00
  WS02006240WS02006239    1.00   0.00  0.00  0.00  0.59  0.00  0.00  0.41  0.04  0.00
  WS02006242WS02006240    1.00   0.00  0.00  0.00  0.99  0.00  0.00  0.00  0.03  0.00
  WS02006243WS02006242    1.00   0.00  0.00  0.00  0.99  0.00  0.00  0.01  0.67  0.00
  WS02006245WS02006243    1.00   0.00  0.00  0.00  0.46  0.00  0.00  0.54  0.03  0.00
  WS02006247WS02006245    1.00   0.00  0.00  0.00  0.99  0.00  0.00  0.01  0.00  0.00
  WS02006248WS02006247    1.00   0.00  0.00  0.00  0.99  0.00  0.00  0.01  0.19  0.00
  WS02006249WS02006248    1.00   0.00  0.00  0.00  0.29  0.00  0.71  0.00  0.00  0.00
  WS02006251WS02006249    1.00   0.00  0.00  0.00  1.00  0.00  0.00  0.00  0.72  0.00
  WS02006252WS02006251    1.00   0.00  0.76  0.00  0.13  0.00  0.11  0.00  0.46  0.00
  WS02006256WS02006235    1.00   0.00  0.00  0.00  0.98  0.02  0.00  0.00  0.00  0.00
  WSF200WS02003060        1.00   0.00  0.05  0.00  0.49  0.46  0.00  0.00  0.72  0.00
  YS02001580YS02001583    1.00   0.29  0.55  0.00  0.16  0.00  0.00  0.00  0.65  0.00
  YS02001583YS02001586    1.00   0.42  0.37  0.00  0.21  0.00  0.00  0.00  0.65  0.00
  YS02001586YS02001590    1.00   0.13  0.00  0.00  0.41  0.05  0.00  0.41  0.39  0.00
  YS02001590YS02001593    1.00   0.13  0.01  0.00  0.08  0.00  0.79  0.00  0.00  0.00
  YS02001593YS02001596    1.00   0.14  0.00  0.00  0.09  0.01  0.00  0.76  0.02  0.00
  YS02001596YS02001600    1.00   0.14  0.00  0.00  0.16  0.02  0.00  0.69  0.05  0.00
  YS02001600YS02001601    1.00   0.13  0.01  0.00  0.86  0.00  0.00  0.00  0.63  0.00
  YS02001601YS02001602    1.00   0.13  0.01  0.00  0.86  0.00  0.00  0.00  0.00  0.00
  YS02001602YS02001605    1.00   0.14  0.00  0.00  0.86  0.00  0.00  0.00  0.00  0.00
  YS02001605YS02001607    1.00   0.14  0.00  0.00  0.86  0.00  0.00  0.00  0.00  0.00
  YS02001607YS02001610    1.00   0.14  0.01  0.00  0.86  0.00  0.00  0.00  0.02  0.00
  YS02001610YS02001613    1.00   0.13  0.00  0.00  0.87  0.00  0.00  0.00  0.01  0.00
  YS02001613YS02001616    1.00   0.13  0.00  0.00  0.87  0.00  0.00  0.00  0.01  0.00
  YS02001616YS02001619    1.00   0.13  0.00  0.00  0.87  0.00  0.00  0.00  0.00  0.00
  YS02001619YS02001622    1.00   0.13  0.00  0.00  0.87  0.00  0.00  0.00  0.28  0.00
  YS02001622YS02001625    1.00   0.13  0.00  0.00  0.87  0.00  0.00  0.00  0.06  0.00
  YS02001625YS02001629    1.00   0.13  0.07  0.00  0.11  0.00  0.69  0.00  0.00  0.00
  YS02001629YS02163301    1.00   0.17  0.01  0.00  0.82  0.00  0.00  0.00  0.00  0.00
  YS02001633YS02163601    1.00   0.00  0.01  0.00  0.99  0.00  0.00  0.00  0.16  0.00
  YS02001641YS02001644    1.00   0.00  0.01  0.00  0.99  0.00  0.00  0.00  0.00  0.00
  YS02001644YS02001647    1.00   0.00  0.19  0.00  0.81  0.00  0.00  0.00  0.00  0.00
  YS02001647YS02001649    1.00   0.00  0.19  0.00  0.45  0.36  0.00  0.00  0.57  0.00
  YS02001649YS02001757    1.00   0.00  0.00  0.00  0.61  0.39  0.00  0.00  0.53  0.00
  YS02001652YS02001649    1.00   0.00  0.00  0.00  0.95  0.05  0.00  0.00  0.80  0.00
  YS02001655YS02001652    1.00   0.00  0.00  0.00  0.13  0.02  0.00  0.85  0.08  0.00
  YS02001658YS02001655    1.00   0.00  0.15  0.00  0.58  0.28  0.00  0.00  0.77  0.00
  YS02001661YS02001658    1.00   0.15  0.00  0.00  0.42  0.43  0.00  0.00  0.75  0.00
  YS02001664YS02001661    1.00   0.13  0.00  0.00  0.77  0.11  0.00  0.00  0.86  0.00
  YS02001745YS02001748    1.00   0.00  0.00  0.00  0.02  0.01  0.00  0.98  0.01  0.00
  YS02001748YS02001751    1.00   0.00  0.00  0.00  0.76  0.24  0.00  0.00  0.81  0.00
  YS02001751YS02001754    1.00   0.00  0.00  0.00  0.07  0.01  0.00  0.92  0.04  0.00
  YS02001754YS02001757    1.00   0.00  0.00  0.00  1.00  0.00  0.00  0.00  0.90  0.00
  YS02001757CaochengTiaoxuchi    1.00   0.00  0.00  0.00  0.66  0.34  0.00  0.00  0.82  0.00
  YS02001759YS02001757    1.00   0.00  0.00  0.00  1.00  0.00  0.00  0.00  0.65  0.00
  YS02001762YS02001759    1.00   0.00  0.00  0.00  1.00  0.00  0.00  0.00  0.06  0.00
  YS02001765YS02001762    1.00   0.00  0.00  0.00  1.00  0.00  0.00  0.00  0.76  0.00
  YS02001767YS02001765    1.00   0.00  0.00  0.00  1.00  0.00  0.00  0.00  0.00  0.00
  YS02001770YS02001767    1.00   0.00  0.00  0.00  1.00  0.00  0.00  0.00  0.00  0.00
  YS02001774YS02001770    1.00   0.00  0.14  0.00  0.70  0.00  0.16  0.00  0.04  0.00
  YS02001779YS02001774    1.00   0.00  0.00  0.00  1.00  0.00  0.00  0.00  0.83  0.00
  YS02001783YS02001784    1.00   0.00  0.20  0.00  0.80  0.00  0.00  0.00  0.55  0.00
  YS02001784YS02001785    1.00   0.00  0.00  0.00  1.00  0.00  0.00  0.00  0.19  0.00
  YS02001786YS02001788    1.00   0.00  0.00  0.00  0.79  0.21  0.00  0.00  0.00  0.00
  YS02001788YS02001790    1.00   0.00  0.00  0.00  0.23  0.77  0.00  0.00  0.84  0.00
  YS02001790YS02001791    1.00   0.00  0.00  0.00  0.01  0.99  0.00  0.00  0.15  0.00
  YS02001791YS02001793    1.00   0.00  0.00  0.00  0.00  1.00  0.00  0.00  0.00  0.00
  YS02001793JiankangQianchi    1.00   0.00  0.00  0.00  0.67  0.33  0.00  0.00  0.95  0.00
  YS02001882YS02001884    1.00   0.16  0.01  0.00  0.82  0.00  0.00  0.00  0.00  0.00
  YS02001884YS02001887    1.00   0.06  0.05  0.00  0.89  0.00  0.00  0.00  0.00  0.00
  YS02001887YS02001890    1.00   0.00  0.00  0.00  0.97  0.00  0.03  0.00  0.00  0.00
  YS02001890YS02001895    1.00   0.00  0.18  0.00  0.82  0.00  0.00  0.00  0.00  0.00
  YS02001895YS02001898    1.00   0.18  0.00  0.00  0.79  0.00  0.02  0.00  0.00  0.00
  YS02001898YS02001901    1.00   0.18  0.01  0.00  0.81  0.00  0.00  0.00  0.02  0.00
  YS02001901YS02001904    1.00   0.18  0.00  0.00  0.82  0.00  0.00  0.00  0.00  0.00
  YS02001904YS02001907    1.00   0.00  0.18  0.00  0.82  0.00  0.00  0.00  0.00  0.00
  YS02001907YS02006553    1.00   0.00  0.02  0.00  0.98  0.00  0.00  0.00  0.00  0.00
  YS02001910YS02001907    1.00   0.00  0.00  0.00  0.97  0.00  0.00  0.03  0.12  0.00
  YS02001915YS02001910    1.00   0.00  0.00  0.00  0.96  0.04  0.00  0.00  0.18  0.00
  YS02001918YS02001915    1.00   0.00  0.01  0.00  0.98  0.02  0.00  0.00  0.78  0.00
  YS02001920YS02001918    1.00   0.00  0.01  0.00  0.99  0.00  0.00  0.00  0.00  0.00
  YS02001923YS02001920    1.00   0.00  0.00  0.00  1.00  0.00  0.00  0.00  0.95  0.00
  YS02001926YS02001923    1.00   0.00  0.07  0.00  0.04  0.00  0.89  0.00  0.00  0.00
  YS02001929YS02001926    1.00   0.00  0.13  0.00  0.87  0.00  0.00  0.00  0.84  0.00
  YS02006553YS02006556    1.00   0.01  0.00  0.00  0.99  0.00  0.00  0.00  0.03  0.00
  YS02006556YS02006558    1.00   0.00  0.00  0.00  1.00  0.00  0.00  0.00  0.00  0.00
  YS02006558YS02006561    1.00   0.20  0.00  0.00  0.03  0.76  0.00  0.00  0.20  0.00
  YS02006561YS02001783    1.00   0.20  0.00  0.00  0.06  0.74  0.00  0.00  0.70  0.00
  YS02163301YS02001633    1.00   0.00  0.17  0.00  0.83  0.00  0.00  0.00  0.00  0.00
  YS02163601YS02164001    1.00   0.00  0.08  0.00  0.92  0.00  0.00  0.00  0.00  0.00
  YS02164001YS02001641    1.00   0.01  0.08  0.00  0.92  0.00  0.00  0.00  0.06  0.00
  
  
  *************************
  Conduit Surcharge Summary
  *************************
  
  ----------------------------------------------------------------------------
                                                           Hours        Hours 
                         --------- Hours Full --------   Above Full   Capacity
  Conduit                Both Ends  Upstream  Dnstream   Normal Flow   Limited
  ----------------------------------------------------------------------------
  WS02003072WS02003073        0.01      0.01      0.01      1.08         0.01
  WS02004403WS02004404        0.01      0.01      0.01      0.01         0.01
  WS02004404WS02004405        0.01      0.01      0.01      2.50         0.01
  WS02004405WS02004406        0.01      0.01      0.01      0.82         0.01
  WS02006109WS02006110        0.41      0.41      1.55      0.62         0.01
  WS02006110WS02006113        0.01      0.01      1.51      0.01         0.01
  WS02006111WS02006112        0.01      0.01      1.65      0.01         0.01
  WS02006112WS02006115        0.01      0.01      1.02      0.01         0.01
  WS02006228WS02006109        1.42      1.56      1.42      1.93         1.42
  WS02006229WS02006228        1.39      1.45      1.39      1.77         1.37
  WS02006230WS02006229        1.66      1.72      1.66      3.10         1.66
  WS02006231WS02006230        0.46      0.46      0.97      2.63         0.01
  WS02006232WS02006231        0.82      0.82      1.57      0.89         0.01
  WS02006234WS02006232        1.24      1.24      1.57      0.86         0.79
  WS02006235WS02006234        1.01      1.04      1.31      2.42         0.07
  WS02006238WS02006235        1.36      1.36      1.59      0.01         0.04
  WS02006239WS02006238        1.44      1.56      1.46      1.71         1.19
  WS02006240WS02006239        1.41      1.49      1.41      1.71         1.10
  WS02006242WS02006240        1.47      1.47      1.64      1.84         0.01
  WS02006243WS02006242        1.50      1.50      1.59      0.01         0.17
  WS02006245WS02006243        1.48      1.50      1.49      1.35         0.84
  WS02006247WS02006245        1.48      1.53      1.48      1.91         1.40
  WS02006248WS02006247        1.48      1.48      1.51      0.01         0.20
  WS02006249WS02006248        1.46      1.47      1.49      1.90         0.01
  WS02006251WS02006249        1.48      1.49      1.49      1.87         1.35
  WS02006252WS02006251        1.91      1.91      1.91      1.91         0.01
  WS02006256WS02006235        2.32      2.51      5.17      1.43         0.02
  YS02001580YS02001583        0.33      0.33      0.36      0.01         0.01
  YS02001583YS02001586        0.33      0.33      0.43      0.01         0.01
  YS02001586YS02001590        0.44      0.44      0.49      0.01         0.01
  YS02001590YS02001593        0.50      0.50      0.51      0.52         0.01
  YS02001593YS02001596        0.51      0.51      0.59      0.01         0.01
  YS02001596YS02001600        0.63      0.63      0.72      0.01         0.01
  YS02001600YS02001601        0.78      0.78      1.04      0.01         0.01
  YS02001601YS02001602        0.94      0.94      1.09      0.74         0.01
  YS02001602YS02001605        0.89      0.89      0.94      2.01         0.01
  YS02001605YS02001607        0.85      0.89      0.85      1.01         0.85
  YS02001607YS02001610        0.44      0.44      0.46      0.01         0.01
  YS02001610YS02001613        0.43      0.43      0.46      0.01         0.01
  YS02001613YS02001616        0.39      0.39      0.43      0.01         0.01
  YS02001616YS02001619        0.38      0.38      0.39      0.01         0.01
  YS02001619YS02001622        0.37      0.38      0.37      0.53         0.36
  YS02001622YS02001625        0.37      0.37      0.54      0.01         0.01
  YS02001625YS02001629        0.30      0.30      0.54      0.01         0.01
  YS02001629YS02163301        0.52      0.52      0.53      0.27         0.26
  YS02001633YS02163601        0.55      0.55      0.57      0.37         0.37
  YS02001641YS02001644        0.39      0.45      0.39      1.14         0.39
  YS02001644YS02001647        0.20      0.20      0.39      0.05         0.01
  YS02001647YS02001649        0.20      0.20      0.23      0.01         0.01
  YS02001649YS02001757        0.21      0.23      0.21      0.31         0.20
  YS02001652YS02001649        0.16      0.16      0.23      0.01         0.01
  YS02001655YS02001652        0.09      0.09      0.15      0.01         0.01
  YS02001658YS02001655        0.03      0.03      0.09      0.01         0.01
  YS02001661YS02001658        0.01      0.01      0.03      0.01         0.01
  YS02001745YS02001748        0.01      0.01      0.01      0.01         0.01
  YS02001748YS02001751        0.01      0.01      0.05      0.01         0.01
  YS02001751YS02001754        0.05      0.05      0.09      0.01         0.01
  YS02001754YS02001757        0.10      0.10      0.21      0.01         0.01
  YS02001757CaochengTiaoxuchi        0.01      0.21      0.01      0.31         0.01
  YS02001759YS02001757        0.18      0.18      0.21      0.01         0.01
  YS02001762YS02001759        0.17      0.17      0.18      0.01         0.02
  YS02001765YS02001762        0.15      0.15      0.17      0.01         0.01
  YS02001767YS02001765        0.15      0.15      0.15      0.01         0.02
  YS02001770YS02001767        0.15      0.15      0.15      0.38         0.14
  YS02001774YS02001770        0.14      0.14      0.17      0.01         0.01
  YS02001779YS02001774        0.11      0.11      0.17      0.01         0.01
  YS02001783YS02001784        0.32      0.34      0.32      0.46         0.32
  YS02001784YS02001785        0.22      0.32      0.22      0.65         0.22
  YS02001786YS02001788        0.01      0.22      0.01      0.56         0.01
  YS02001790YS02001791        0.01      0.01      0.01      0.30         0.01
  YS02001882YS02001884        0.29      0.29      0.30      0.01         0.01
  YS02001884YS02001887        0.32      0.32      0.33      0.01         0.01
  YS02001887YS02001890        0.34      0.34      0.35      0.01         0.01
  YS02001890YS02001895        0.28      0.28      0.36      0.01         0.01
  YS02001895YS02001898        0.27      0.27      0.28      0.01         0.01
  YS02001898YS02001901        0.28      0.28      0.32      0.01         0.01
  YS02001901YS02001904        0.31      0.31      0.32      0.01         0.01
  YS02001904YS02001907        0.31      0.31      0.54      0.01         0.01
  YS02001907YS02006553        0.66      0.66      0.72      0.01         0.01
  YS02001910YS02001907        0.36      0.36      0.53      0.01         0.01
  YS02001915YS02001910        0.29      0.29      0.36      0.01         0.01
  YS02001918YS02001915        0.21      0.21      0.29      0.01         0.01
  YS02001920YS02001918        0.21      0.21      0.23      0.01         0.01
  YS02001923YS02001920        0.18      0.18      0.23      0.01         0.01
  YS02001926YS02001923        0.01      0.01      0.01      0.01         0.01
  YS02001929YS02001926        0.01      0.01      0.01      0.01         0.01
  YS02006553YS02006556        0.44      0.44      0.54      0.01         0.01
  YS02006556YS02006558        0.49      0.49      0.55      0.01         0.01
  YS02006558YS02006561        0.24      0.43      0.24      0.61         0.24
  YS02006561YS02001783        0.18      0.18      0.34      0.01         0.01
  YS02163301YS02001633        0.53      0.53      0.57      0.01         0.01
  YS02163601YS02164001        0.46      0.46      0.57      0.22         0.01
  YS02164001YS02001641        0.45      0.46      0.45      0.59         0.41
  
  
  ***************
  Pumping Summary
  ***************
  
  ---------------------------------------------------------------------------------------------------------
                                                  Min       Avg       Max     Total     Power    % Time Off
                        Percent   Number of      Flow      Flow      Flow    Volume     Usage    Pump Curve
  Pump                 Utilized   Start-Ups       LPS       LPS       LPS  10^6 ltr     Kw-hr    Low   High
  ---------------------------------------------------------------------------------------------------------
  CC-R1                   17.95           2      0.00    683.00    683.00     3.495     56.39    0.0  100.0
  CC-R2                   17.95           2      0.00    683.00    683.00     3.495     56.39    0.0  100.0
  CC-S1                   24.16           3      0.00    200.00    200.00     1.377     11.25    0.0   51.1
  CC-S2                   24.16           3      0.00    200.00    200.00     1.377     11.25    0.0   51.1
  JK-R1                    2.98          39      0.00   1000.00   1000.00     0.849      2.77    0.0    0.0
  JK-R2                    2.98          39      0.00   1000.00   1000.00     0.849      2.77    0.0    0.0
  JK-S                    17.58          77      0.00    300.00    300.00     1.503     33.56    0.0    0.0
  

  Analysis begun on:  Tue Apr 22 10:18:45 2025
  Analysis ended on:  Tue Apr 22 10:18:46 2025
  Total elapsed time: 00:00:01