
  EPA STORM WATER MANAGEMENT MODEL - VERSION 5.2 (Build 5.2.4)
  PYSWMM TOOLKIT API - VERSION v1.0 (2023-11-27)
  ------------------------------------------------------------

  WARNING 04: minimum elevation drop used for Conduit WS02004404WS02004405
  WARNING 03: negative offset ignored for Link YS02001904YS02001907
  
  ****************
  Analysis Options
  ****************
  Flow Units ............... LPS
  Process Models:
    Rainfall/Runoff ........ YES
    RDII ................... NO
    Snowmelt ............... NO
    Groundwater ............ NO
    Flow Routing ........... YES
    Ponding Allowed ........ NO
    Water Quality .......... NO
  Infiltration Method ...... HORTON
  Flow Routing Method ...... DYNWAVE
  Surcharge Method ......... EXTRAN
  Starting Date ............ 08/28/2015 08:00:00
  Ending Date .............. 08/28/2015 16:00:00
  Antecedent Dry Days ...... 8.0
  Report Time Step ......... 00:01:00
  Wet Time Step ............ 00:01:00
  Dry Time Step ............ 00:01:00
  Routing Time Step ........ 30.00 sec
  Variable Time Step ....... YES
  Maximum Trials ........... 8
  Number of Threads ........ 4
  Head Tolerance ........... 0.001500 m
  
  
  **************************        Volume         Depth
  Runoff Quantity Continuity     hectare-m            mm
  **************************     ---------       -------
  Total Precipitation ......         1.708        51.486
  Evaporation Loss .........         0.000         0.000
  Infiltration Loss ........         0.096         2.894
  Surface Runoff ...........         1.579        47.610
  Final Storage ............         0.033         0.995
  Continuity Error (%) .....        -0.024
  
  
  **************************        Volume        Volume
  Flow Routing Continuity        hectare-m      10^6 ltr
  **************************     ---------     ---------
  Dry Weather Inflow .......         0.025         0.248
  Wet Weather Inflow .......         1.579        15.788
  Groundwater Inflow .......         0.000         0.000
  RDII Inflow ..............         0.000         0.000
  External Inflow ..........         0.083         0.825
  External Outflow .........         1.490        14.898
  Flooding Loss ............         0.372         3.722
  Evaporation Loss .........         0.000         0.000
  Exfiltration Loss ........         0.000         0.000
  Initial Stored Volume ....         0.243         2.431
  Final Stored Volume ......         0.077         0.769
  Continuity Error (%) .....        -0.510
  
  
  *************************
  Highest Continuity Errors
  *************************
  Node YS02001583 (-7.55%)
  Node YS02001884 (5.43%)
  Node WS02006256 (-3.84%)
  Node YS02001774 (1.53%)
  
  
  ***************************
  Time-Step Critical Elements
  ***************************
  Link WS02006238WS02006235 (28.74%)
  Link WS02004404WS02004405 (26.04%)
  Link WS02003066WSF200 (12.33%)
  Link YS02001791YS02001793 (5.59%)
  Link YS02001793JiankangQianchi (3.56%)
  
  
  ********************************
  Highest Flow Instability Indexes
  ********************************
  Link WS02006113WS02006111 (35)
  Link WS02006252WS02006251 (30)
  Link WS02004404WS02004405 (22)
  Link WS02006256WS02006235 (21)
  Link WS02006238WS02006235 (21)
  
  
  *********************************
  Most Frequent Nonconverging Nodes
  *********************************
  Node CC-1 (28.17%)
  Node CC-2 (28.17%)
  Node JK-1 (28.17%)
  Node JK-2 (28.17%)
  Node WSC (28.17%)
  
  
  *************************
  Routing Time Step Summary
  *************************
  Minimum Time Step           :     0.00 sec
  Average Time Step           :     3.00 sec
  Maximum Time Step           :     6.43 sec
  % of Time in Steady State   :     0.00
  Average Iterations per Step :     4.10
  % of Steps Not Converging   :    28.17
  Time Step Frequencies       :
     30.000 - 13.228 sec      :     0.00 %
     13.228 -  5.833 sec      :    16.11 %
      5.833 -  2.572 sec      :    32.50 %
      2.572 -  1.134 sec      :    35.43 %
      1.134 -  0.500 sec      :    15.96 %
  
  
  ***************************
  Subcatchment Runoff Summary
  ***************************
  
  ------------------------------------------------------------------------------------------------------------------------------
                            Total      Total      Total      Total     Imperv       Perv      Total       Total     Peak  Runoff
                           Precip      Runon       Evap      Infil     Runoff     Runoff     Runoff      Runoff   Runoff   Coeff
  Subcatchment                 mm         mm         mm         mm         mm         mm         mm    10^6 ltr      LPS
  ------------------------------------------------------------------------------------------------------------------------------
  sub60                     51.49       0.00       0.00       1.75      44.10       4.43      48.53        0.64   457.35   0.943
  sub61                     51.49       0.00       0.00       2.53      41.60       6.22      47.82        0.88   632.47   0.929
  sub62                     51.49       0.00       0.00       1.17      46.08       2.95      49.03        1.34   882.76   0.952
  sub63                     51.49       0.00       0.00       4.67      35.58      10.26      45.85        1.04   696.57   0.890
  sub64                     51.49       0.00       0.00       2.36      42.56       5.36      47.92        1.15   707.36   0.931
  sub65                     51.49       0.00       0.00       2.04      43.54       4.65      48.19        1.33   789.13   0.936
  sub66                     51.49       0.00       0.00       5.76      35.48       9.17      44.65        2.08  1001.09   0.867
  sub67                     51.49       0.00       0.00       1.13      46.12       2.99      49.12        0.91   692.25   0.954
  sub68                     51.49       0.00       0.00       2.10      43.09       5.11      48.20        1.33   907.60   0.936
  sub69                     51.49       0.00       0.00       1.85      43.65       5.87      49.52        1.83  1053.15   0.962
  sub70                     51.49       0.00       0.00       6.15      33.82      11.36      45.17        1.30   561.92   0.877
  sub71                     51.49       0.00       0.00       1.20      46.04       2.92      48.96        1.28   767.80   0.951
  sub72                     51.49       0.00       0.00       1.06      46.48       2.54      49.02        0.67   366.35   0.952
  
  
  ******************
  Node Depth Summary
  ******************
  
  ---------------------------------------------------------------------------------
                                 Average  Maximum  Maximum  Time of Max    Reported
                                   Depth    Depth      HGL   Occurrence   Max Depth
  Node                 Type       Meters   Meters   Meters  days hr:min      Meters
  ---------------------------------------------------------------------------------
  WS02003060           JUNCTION     0.21     0.38     5.32     0  02:58        0.38
  WS02003066           JUNCTION     0.18     0.30     5.85     0  02:58        0.30
  WS02003067           JUNCTION     0.46     0.70     6.02     0  02:58        0.70
  WS02003069           JUNCTION     0.24     0.43     5.01     0  02:59        0.43
  WS02003072           JUNCTION     0.30     0.50     4.87     0  02:59        0.50
  WS02003073           JUNCTION     0.16     0.30     4.36     0  03:00        0.30
  WS02004401           JUNCTION     0.57     0.87     6.87     0  02:56        0.87
  WS02004402           JUNCTION     0.60     0.90     6.86     0  02:56        0.90
  WS02004403           JUNCTION     0.62     0.92     6.85     0  02:56        0.92
  WS02004404           JUNCTION     0.69     1.01     6.86     0  02:56        1.00
  WS02004405           JUNCTION     0.68     0.97     6.82     0  02:55        0.96
  WS02004406           JUNCTION     0.69     0.96     6.79     0  02:55        0.96
  WS02004407           JUNCTION     0.16     0.30     6.61     0  02:56        0.30
  WS02004409           JUNCTION     0.36     0.67     6.44     0  02:56        0.67
  WS02004410           JUNCTION     0.38     0.68     6.40     0  02:57        0.68
  WS02004411           JUNCTION     0.40     0.69     6.37     0  02:57        0.69
  WS02004412           JUNCTION     0.42     0.70     6.34     0  02:57        0.70
  WS02004413           JUNCTION     0.57     0.86     6.33     0  02:57        0.86
  WS02006109           JUNCTION     0.64     1.25     7.87     0  02:08        1.03
  WS02006110           JUNCTION     0.64     1.37     7.95     0  02:31        1.01
  WS02006111           JUNCTION     0.17     0.29     6.99     0  02:43        0.29
  WS02006112           JUNCTION     0.73     1.09     6.97     0  02:30        1.07
  WS02006113           JUNCTION     0.26     0.46     7.35     0  02:43        0.45
  WS02006115           JUNCTION     0.46     0.77     6.91     0  02:52        0.77
  WS02006116           JUNCTION     0.54     0.85     6.89     0  02:53        0.85
  WS02006228           JUNCTION     0.64     1.55     8.20     0  01:54        1.07
  WS02006229           JUNCTION     0.61     1.37     8.07     0  02:08        1.08
  WS02006230           JUNCTION     0.62     1.59     8.34     0  02:08        1.19
  WS02006231           JUNCTION     0.43     2.24     9.36     0  02:14        0.93
  WS02006232           JUNCTION     0.56     2.12     9.16     0  02:21        1.86
  WS02006234           JUNCTION     0.49     1.96     9.12     0  02:08        1.96
  WS02006235           JUNCTION     0.53     2.00     9.16     0  02:08        2.00
  WS02006238           JUNCTION     0.56     2.15     9.29     0  02:08        2.15
  WS02006239           JUNCTION     0.52     2.03     9.24     0  02:08        2.03
  WS02006240           JUNCTION     0.49     2.10     9.39     0  02:08        2.10
  WS02006242           JUNCTION     0.56     1.55     8.82     0  01:57        1.55
  WS02006243           JUNCTION     0.48     1.48     8.90     0  01:53        1.48
  WS02006245           JUNCTION     0.48     1.56     9.04     0  02:08        1.56
  WS02006247           JUNCTION     0.50     1.47     8.97     0  02:08        1.47
  WS02006248           JUNCTION     0.47     1.10     8.69     0  01:53        1.10
  WS02006249           JUNCTION     0.49     1.09     8.69     0  01:54        1.09
  WS02006251           JUNCTION     0.49     1.42     9.09     0  01:55        1.29
  WS02006252           JUNCTION     0.33     1.50     9.74     0  00:00        0.87
  WS02006256           JUNCTION     1.08     2.35     9.28     0  00:00        2.35
  WSF200               JUNCTION     0.15     0.29     5.52     0  02:58        0.29
  YS02001580           JUNCTION     0.11     1.05     9.59     0  01:57        0.77
  YS02001583           JUNCTION     0.15     1.13     9.63     0  01:57        0.82
  YS02001586           JUNCTION     0.23     1.13     9.30     0  01:57        1.13
  YS02001590           JUNCTION     0.33     1.40     9.26     0  01:55        1.38
  YS02001593           JUNCTION     0.27     1.39     9.25     0  01:55        1.29
  YS02001596           JUNCTION     0.37     1.79     9.20     0  01:55        1.66
  YS02001600           JUNCTION     0.44     1.87     9.00     0  01:55        1.86
  YS02001601           JUNCTION     0.62     2.06     8.90     0  01:55        2.06
  YS02001602           JUNCTION     0.53     1.87     8.77     0  01:56        1.87
  YS02001605           JUNCTION     0.49     1.78     8.68     0  01:56        1.77
  YS02001607           JUNCTION     0.46     1.66     8.51     0  01:56        1.66
  YS02001610           JUNCTION     0.50     1.68     8.48     0  01:56        1.68
  YS02001613           JUNCTION     0.46     1.67     8.51     0  01:57        1.65
  YS02001616           JUNCTION     0.40     1.61     8.52     0  01:57        1.59
  YS02001619           JUNCTION     0.38     1.61     8.54     0  01:57        1.61
  YS02001622           JUNCTION     0.36     1.62     8.52     0  01:57        1.62
  YS02001625           JUNCTION     0.60     1.78     8.38     0  01:57        1.78
  YS02001629           JUNCTION     0.49     1.85     8.40     0  01:57        1.85
  YS02001633           JUNCTION     0.55     2.08     8.53     0  01:57        2.08
  YS02001641           JUNCTION     0.52     2.10     8.54     0  01:57        2.10
  YS02001644           JUNCTION     0.51     1.92     8.35     0  02:00        1.92
  YS02001647           JUNCTION     0.29     1.81     8.42     0  02:01        1.71
  YS02001649           JUNCTION     0.32     2.05     8.44     0  02:01        1.91
  YS02001652           JUNCTION     0.22     2.04     8.64     0  02:01        1.76
  YS02001655           JUNCTION     0.15     1.98     8.83     0  02:01        1.57
  YS02001658           JUNCTION     0.11     1.98     9.12     0  02:01        1.34
  YS02001661           JUNCTION     0.14     1.64     9.05     0  02:01        1.14
  YS02001664           JUNCTION     0.06     0.77     8.69     0  02:01        0.66
  YS02001745           JUNCTION     0.06     1.94     9.45     0  02:01        0.69
  YS02001748           JUNCTION     0.09     2.23     9.31     0  02:01        1.09
  YS02001751           JUNCTION     0.11     2.20     9.08     0  02:01        1.28
  YS02001754           JUNCTION     0.16     2.20     8.81     0  02:01        1.55
  YS02001757           JUNCTION     0.32     2.21     8.47     0  02:01        1.90
  YS02001759           JUNCTION     0.26     2.21     8.57     0  02:01        1.88
  YS02001762           JUNCTION     0.26     2.15     8.55     0  02:01        1.89
  YS02001765           JUNCTION     0.24     2.10     8.55     0  02:01        1.95
  YS02001767           JUNCTION     0.24     2.02     8.51     0  02:01        1.96
  YS02001770           JUNCTION     0.25     1.95     8.44     0  02:00        1.95
  YS02001774           JUNCTION     0.31     2.03     8.45     0  02:00        2.03
  YS02001779           JUNCTION     0.15     1.68     8.37     0  01:59        1.68
  YS02001783           JUNCTION     0.28     1.33     7.47     0  01:59        1.23
  YS02001784           JUNCTION     0.29     1.20     7.27     0  01:59        1.12
  YS02001786           JUNCTION     0.24     0.92     6.95     0  01:59        0.87
  YS02001788           JUNCTION     0.17     0.62     6.60     0  01:59        0.62
  YS02001790           JUNCTION     0.21     0.72     6.37     0  02:05        0.72
  YS02001791           JUNCTION     0.13     0.44     5.91     0  02:03        0.43
  YS02001793           JUNCTION     0.07     0.24     5.08     0  02:04        0.23
  YS02001882           JUNCTION     0.34     1.67     8.39     0  01:59        1.63
  YS02001884           JUNCTION     0.43     1.76     8.38     0  01:59        1.74
  YS02001887           JUNCTION     0.50     1.82     8.36     0  01:59        1.82
  YS02001890           JUNCTION     0.53     1.81     8.32     0  01:59        1.81
  YS02001895           JUNCTION     0.32     1.57     8.32     0  01:59        1.56
  YS02001898           JUNCTION     0.32     1.57     8.31     0  01:59        1.55
  YS02001901           JUNCTION     0.43     1.68     8.29     0  01:59        1.68
  YS02001904           JUNCTION     0.41     1.64     8.27     0  01:59        1.63
  YS02001907           JUNCTION     0.71     1.96     8.25     0  01:59        1.96
  YS02001910           JUNCTION     0.52     2.00     8.51     0  01:59        1.95
  YS02001915           JUNCTION     0.35     1.94     8.66     0  01:59        1.91
  YS02001918           JUNCTION     0.20     1.81     8.88     0  01:59        1.81
  YS02001920           JUNCTION     0.28     2.14     9.15     0  01:59        2.04
  YS02001923           JUNCTION     0.15     2.03     9.29     0  01:59        1.95
  YS02001926           JUNCTION     0.18     1.90     9.35     0  01:59        1.90
  YS02001929           JUNCTION     0.10     1.67     9.36     0  01:59        1.66
  YS02006553           JUNCTION     0.71     2.00     8.29     0  01:59        1.98
  YS02006556           JUNCTION     0.68     2.01     8.32     0  01:59        1.96
  YS02006558           JUNCTION     0.73     2.06     8.33     0  01:59        2.01
  YS02006561           JUNCTION     0.17     1.03     7.69     0  01:59        0.89
  YS02163301           JUNCTION     0.50     2.01     8.52     0  01:57        2.01
  YS02163601           JUNCTION     0.58     2.08     8.48     0  01:57        2.08
  YS02164001           JUNCTION     0.51     2.10     8.56     0  01:57        2.10
  CC-1                 OUTFALL      0.00     0.00     0.00     0  00:00        0.00
  CC-2                 OUTFALL      0.00     0.00     0.00     0  00:00        0.00
  JK-1                 OUTFALL      0.00     0.00     0.00     0  00:00        0.00
  JK-2                 OUTFALL      0.00     0.00     0.00     0  00:00        0.00
  WSC                  OUTFALL      0.16     0.30     0.97     0  03:00        0.30
  CC-storage           STORAGE      0.33     0.93     6.43     0  02:28        0.93
  JK-storage           STORAGE      0.18     2.99     3.79     0  00:00        0.68
  
  
  *******************
  Node Inflow Summary
  *******************
  
  -------------------------------------------------------------------------------------------------
                                  Maximum  Maximum                  Lateral       Total        Flow
                                  Lateral    Total  Time of Max      Inflow      Inflow     Balance
                                   Inflow   Inflow   Occurrence      Volume      Volume       Error
  Node                 Type           LPS      LPS  days hr:min    10^6 ltr    10^6 ltr     Percent
  -------------------------------------------------------------------------------------------------
  WS02003060           JUNCTION     16.53   554.19     0  02:58       0.471        4.55       0.045
  WS02003066           JUNCTION      0.00   537.34     0  02:58           0        4.08       0.037
  WS02003067           JUNCTION      0.00   537.22     0  02:58           0        4.08       0.100
  WS02003069           JUNCTION      0.32   554.36     0  02:59     0.00912        4.56       0.085
  WS02003072           JUNCTION      0.00   553.89     0  02:59           0        4.55       0.157
  WS02003073           JUNCTION      1.82   555.42     0  03:00      0.0519         4.6       0.121
  WS02004401           JUNCTION      0.00   543.61     0  02:58           0        4.18       0.244
  WS02004402           JUNCTION      0.00   543.32     0  02:58           0        4.17       0.248
  WS02004403           JUNCTION      0.00   543.74     0  02:58           0        4.16       0.241
  WS02004404           JUNCTION      0.16   555.01     0  02:56     0.00462        4.15       0.175
  WS02004405           JUNCTION      0.04   601.84     0  02:58     0.00109        4.15       0.235
  WS02004406           JUNCTION      0.00   543.25     0  02:55           0        4.14       0.503
  WS02004407           JUNCTION      0.00   538.44     0  02:56           0        4.12       0.022
  WS02004409           JUNCTION      0.00   538.12     0  02:56           0        4.12       0.060
  WS02004410           JUNCTION      0.00   537.93     0  02:56           0        4.11       0.106
  WS02004411           JUNCTION      0.00   537.50     0  02:57           0        4.11       0.134
  WS02004412           JUNCTION      0.00   537.60     0  02:57           0         4.1       0.178
  WS02004413           JUNCTION      0.00   537.39     0  02:57           0         4.1       0.333
  WS02006109           JUNCTION      1.23   568.06     0  01:57      0.0351        4.23       0.200
  WS02006110           JUNCTION      0.00   571.97     0  02:08           0        4.22       0.142
  WS02006111           JUNCTION      0.00   560.77     0  02:36           0        4.21       0.024
  WS02006112           JUNCTION      0.00   544.77     0  02:43           0        4.21       0.484
  WS02006113           JUNCTION      0.00   569.88     0  02:31           0        4.21       0.045
  WS02006115           JUNCTION      0.00   546.65     0  02:37           0        4.19       0.169
  WS02006116           JUNCTION      0.00   539.81     0  02:43           0        4.18       0.070
  WS02006228           JUNCTION      0.00   563.42     0  01:57           0        4.19       0.061
  WS02006229           JUNCTION      0.00   562.68     0  01:57           0         4.2       0.163
  WS02006230           JUNCTION     10.28   598.95     0  01:57       0.293         4.2       0.024
  WS02006231           JUNCTION      0.00   586.85     0  01:57           0        3.91      -0.068
  WS02006232           JUNCTION      0.00   582.33     0  01:57           0        3.92       0.399
  WS02006234           JUNCTION      0.00   577.95     0  03:11           0         3.9      -0.519
  WS02006235           JUNCTION      0.00   602.53     0  01:52           0        4.06       0.449
  WS02006238           JUNCTION      0.00   427.12     0  04:18           0        3.01      -0.140
  WS02006239           JUNCTION      0.00   427.23     0  04:18           0        2.92      -0.158
  WS02006240           JUNCTION      0.00   427.06     0  04:18           0        2.85      -0.012
  WS02006242           JUNCTION      0.00   426.38     0  04:18           0        2.82      -0.031
  WS02006243           JUNCTION      0.00   425.75     0  04:18           0        2.79      -0.217
  WS02006245           JUNCTION      0.00   425.50     0  04:18           0         2.8       0.437
  WS02006247           JUNCTION      0.00   426.33     0  04:18           0        2.79      -0.023
  WS02006248           JUNCTION      0.00   425.62     0  03:06           0         2.8       0.149
  WS02006249           JUNCTION      0.00   464.02     0  01:49           0        3.01       0.355
  WS02006251           JUNCTION      0.08   405.64     0  02:46     0.00219        3.01      -0.049
  WS02006252           JUNCTION      0.00   400.00     0  00:00           0        3.01      -0.020
  WS02006256           JUNCTION      0.00   329.75     0  02:18           0        1.62      -3.702
  WSF200               JUNCTION      0.00   537.39     0  02:58           0        4.08       0.009
  YS02001580           JUNCTION      0.00   124.64     0  01:56           0     0.00426       1.286
  YS02001583           JUNCTION      0.00   202.61     0  01:57           0      0.0148      -7.018
  YS02001586           JUNCTION    561.92   562.05     0  02:04         1.3        1.32       0.118
  YS02001590           JUNCTION      0.00   318.12     0  02:07           0        1.13      -0.041
  YS02001593           JUNCTION      0.00   318.01     0  02:06           0        1.13       0.012
  YS02001596           JUNCTION      0.00   317.97     0  02:06           0        1.13       0.004
  YS02001600           JUNCTION      0.00   318.07     0  02:06           0        1.13       0.013
  YS02001601           JUNCTION   1053.15  1370.50     0  02:03        1.83        2.96       0.035
  YS02001602           JUNCTION      0.00   540.63     0  01:56           0        2.04       0.023
  YS02001605           JUNCTION      0.00   540.16     0  01:56           0        1.97       0.028
  YS02001607           JUNCTION      0.00   539.50     0  01:56           0        1.97       0.103
  YS02001610           JUNCTION      0.00   542.78     0  01:56           0        2.02       0.131
  YS02001613           JUNCTION      0.00   548.79     0  01:56           0        1.73       0.105
  YS02001616           JUNCTION      0.00   552.16     0  01:56           0        1.73       0.031
  YS02001619           JUNCTION   1001.09  1001.09     0  02:04        2.08        3.75       0.007
  YS02001622           JUNCTION      0.00   942.09     0  02:18           0         3.7       0.003
  YS02001625           JUNCTION      0.00  1093.85     0  02:04           0        3.75       0.238
  YS02001629           JUNCTION      0.00   942.52     0  02:18           0        3.26       0.018
  YS02001633           JUNCTION    789.33  1430.45     0  01:58        1.33        4.52       0.077
  YS02001641           JUNCTION      0.00  1426.33     0  01:58           0        4.46       0.062
  YS02001644           JUNCTION    707.40  1875.80     0  01:58        1.15        5.61       0.058
  YS02001647           JUNCTION      0.00  1876.16     0  01:58           0        5.51       0.007
  YS02001649           JUNCTION      0.00  2174.91     0  01:58           0        6.55       0.008
  YS02001652           JUNCTION      0.00   900.54     0  02:02           0        1.05      -0.098
  YS02001655           JUNCTION      0.15   899.50     0  02:02     0.00439        1.05       0.073
  YS02001658           JUNCTION      0.00   898.59     0  02:02           0        1.04      -0.089
  YS02001661           JUNCTION      0.00   880.56     0  02:02           0        1.04      -0.012
  YS02001664           JUNCTION    696.57   696.57     0  02:02        1.04        1.04      -0.012
  YS02001745           JUNCTION    457.35   588.59     0  02:00       0.638       0.639       0.176
  YS02001748           JUNCTION      0.04   616.78     0  02:00     0.00128       0.642      -0.302
  YS02001751           JUNCTION      0.01   604.82     0  02:01    0.000313        0.65       0.167
  YS02001754           JUNCTION      0.26   606.16     0  02:01     0.00741       0.663      -0.122
  YS02001757           JUNCTION      0.00  3459.97     0  02:01           0        9.42       0.051
  YS02001759           JUNCTION    632.51  1472.63     0  02:01       0.878        2.21      -0.007
  YS02001762           JUNCTION      0.00   845.44     0  02:01           0        1.33       0.009
  YS02001765           JUNCTION      0.00   847.73     0  02:01           0        1.33       0.005
  YS02001767           JUNCTION      0.54   849.58     0  02:01      0.0152        1.33       0.015
  YS02001770           JUNCTION    882.92   882.92     0  02:02        1.35        1.39      -0.000
  YS02001774           JUNCTION      0.00   440.95     0  01:59           0      0.0839       1.553
  YS02001779           JUNCTION      0.01   448.30     0  01:59    0.000142       0.043      -1.290
  YS02001783           JUNCTION      0.00  1160.77     0  02:01           0        3.46       0.008
  YS02001784           JUNCTION      1.06  1161.76     0  02:01      0.0302        3.49       0.016
  YS02001786           JUNCTION      0.06  1162.29     0  02:01      0.0016        3.49       0.021
  YS02001788           JUNCTION      0.07  1163.51     0  02:00     0.00202        3.49       0.008
  YS02001790           JUNCTION      0.15  1176.90     0  01:59     0.00442         3.5       0.013
  YS02001791           JUNCTION      0.00  1279.56     0  02:03           0         3.5      -0.013
  YS02001793           JUNCTION      0.00  1241.76     0  02:03           0         3.5      -0.013
  YS02001882           JUNCTION      0.00    54.36     0  01:57           0      0.0126       6.108
  YS02001884           JUNCTION      0.00    87.81     0  01:57           0      0.0483       5.739
  YS02001887           JUNCTION    692.70   693.80     0  02:01       0.926       0.959       0.481
  YS02001890           JUNCTION      0.00   694.59     0  02:01           0       0.918       0.580
  YS02001895           JUNCTION      0.00   517.38     0  02:04           0       0.871       0.174
  YS02001898           JUNCTION      0.00   517.46     0  02:05           0        0.87       0.047
  YS02001901           JUNCTION      0.00   517.86     0  02:05           0       0.872       0.384
  YS02001904           JUNCTION      0.00   517.79     0  02:05           0       0.877       0.345
  YS02001907           JUNCTION      0.00  1674.53     0  02:03           0         2.9       0.630
  YS02001910           JUNCTION      0.00  1158.29     0  02:03           0        2.03       0.362
  YS02001915           JUNCTION    767.82  1158.16     0  02:03        1.28        2.08       0.064
  YS02001918           JUNCTION      0.00   509.08     0  01:59           0       0.834       0.007
  YS02001920           JUNCTION      2.87   501.00     0  01:59      0.0818       0.814       0.128
  YS02001923           JUNCTION      0.04   519.41     0  01:58     0.00107       0.715      -0.069
  YS02001926           JUNCTION      0.05   824.35     0  01:59     0.00149       0.695      -0.150
  YS02001929           JUNCTION    366.35   688.59     0  01:59       0.674       0.679      -0.072
  YS02006553           JUNCTION      0.00   800.43     0  02:17           0        2.16       0.564
  YS02006556           JUNCTION      0.00   801.60     0  02:17           0        2.16       0.385
  YS02006558           JUNCTION    908.48  1165.47     0  01:59        1.35        3.49       0.101
  YS02006561           JUNCTION      0.00  1161.73     0  01:59           0        3.46       0.001
  YS02163301           JUNCTION      0.00   944.54     0  02:18           0        3.25       0.054
  YS02163601           JUNCTION      0.11  1429.48     0  01:58     0.00313        4.46       0.113
  YS02164001           JUNCTION      0.00  1428.51     0  01:58           0        4.46       0.050
  CC-1                 OUTFALL       0.00   683.00     0  00:00           0        4.12       0.000
  CC-2                 OUTFALL       0.00   683.00     0  00:00           0        4.12       0.000
  JK-1                 OUTFALL       0.00  1000.00     0  00:00           0        1.03       0.000
  JK-2                 OUTFALL       0.00  1000.00     0  00:00           0        1.03       0.000
  WSC                  OUTFALL       0.00   555.14     0  03:00           0        4.59       0.000
  CC-storage           STORAGE       0.00  3462.96     0  02:01           0        11.6      -0.368
  JK-storage           STORAGE       0.00  1339.93     0  02:02           0        3.65      -0.640
  
  
  **********************
  Node Surcharge Summary
  **********************
  
  Surcharging occurs when water rises above the top of the highest conduit.
  ---------------------------------------------------------------------
                                               Max. Height   Min. Depth
                                   Hours       Above Crown    Below Rim
  Node                 Type      Surcharged         Meters       Meters
  ---------------------------------------------------------------------
  WS02004404           JUNCTION        0.01          0.014        2.766
  WS02006109           JUNCTION        1.60          0.433        1.387
  WS02006110           JUNCTION        0.44          0.460        1.390
  WS02006112           JUNCTION        1.18          0.087        1.593
  WS02006228           JUNCTION        1.58          0.716        1.484
  WS02006229           JUNCTION        1.63          0.573        1.877
  WS02006230           JUNCTION        0.49          0.513        1.057
  WS02006231           JUNCTION        0.92          1.530        0.000
  WS02006232           JUNCTION        1.75          1.418        0.062
  WS02006234           JUNCTION        1.18          1.240        0.000
  WS02006235           JUNCTION        1.46          1.290        0.000
  WS02006238           JUNCTION        1.63          1.430        0.000
  WS02006239           JUNCTION        1.58          1.290        0.000
  WS02006240           JUNCTION        1.64          1.390        0.000
  WS02006242           JUNCTION        1.79          0.820        0.000
  WS02006243           JUNCTION        1.66          0.770        0.000
  WS02006245           JUNCTION        1.65          0.850        0.000
  WS02006247           JUNCTION        1.70          0.760        0.000
  WS02006248           JUNCTION        1.64          0.380        0.000
  WS02006249           JUNCTION        1.67          0.390        0.000
  WS02006251           JUNCTION        1.19          0.386        0.794
  WS02006252           JUNCTION        2.09          1.100        0.000
  WS02006256           JUNCTION        5.47          2.050        0.000
  YS02001580           JUNCTION        0.47          0.450        0.000
  YS02001583           JUNCTION        0.48          0.494        0.006
  YS02001586           JUNCTION        0.57          0.510        0.000
  YS02001590           JUNCTION        0.64          0.750        0.000
  YS02001593           JUNCTION        0.64          0.769        0.071
  YS02001596           JUNCTION        0.74          1.055        0.015
  YS02001600           JUNCTION        0.88          1.190        0.000
  YS02001601           JUNCTION        1.28          1.440        0.000
  YS02001602           JUNCTION        1.14          1.270        0.000
  YS02001605           JUNCTION        1.08          1.180        0.000
  YS02001607           JUNCTION        0.58          0.664        0.016
  YS02001610           JUNCTION        0.60          0.680        0.000
  YS02001613           JUNCTION        0.57          0.672        0.028
  YS02001616           JUNCTION        0.53          0.610        0.000
  YS02001619           JUNCTION        0.51          0.610        0.000
  YS02001622           JUNCTION        0.50          0.620        0.000
  YS02001625           JUNCTION        0.69          0.780        0.000
  YS02001629           JUNCTION        0.41          0.470        0.000
  YS02001633           JUNCTION        0.69          1.060        0.000
  YS02001641           JUNCTION        0.58          1.100        0.000
  YS02001644           JUNCTION        0.52          0.920        0.000
  YS02001647           JUNCTION        0.31          0.808        0.092
  YS02001649           JUNCTION        0.34          1.050        0.000
  YS02001652           JUNCTION        0.23          1.010        0.120
  YS02001655           JUNCTION        0.17          0.982        0.218
  YS02001658           JUNCTION        0.09          0.977        0.323
  YS02001661           JUNCTION        0.01          0.572        0.818
  YS02001745           JUNCTION        0.01          0.938        0.412
  YS02001748           JUNCTION        0.02          1.150        0.040
  YS02001751           JUNCTION        0.11          1.200        0.000
  YS02001754           JUNCTION        0.17          1.150        0.000
  YS02001757           JUNCTION        0.33          1.210        0.000
  YS02001759           JUNCTION        0.28          1.206        0.004
  YS02001762           JUNCTION        0.27          1.150        0.000
  YS02001765           JUNCTION        0.25          1.095        0.005
  YS02001767           JUNCTION        0.24          1.023        0.007
  YS02001770           JUNCTION        0.23          0.920        0.000
  YS02001774           JUNCTION        0.27          1.028        0.022
  YS02001779           JUNCTION        0.18          0.680        0.000
  YS02001783           JUNCTION        0.44          0.529        1.071
  YS02001784           JUNCTION        0.42          0.398        1.092
  YS02001786           JUNCTION        0.33          0.125        1.305
  YS02001882           JUNCTION        0.39          0.672        0.158
  YS02001884           JUNCTION        0.40          0.703        0.167
  YS02001887           JUNCTION        0.43          0.774        0.176
  YS02001890           JUNCTION        0.44          0.760        0.000
  YS02001895           JUNCTION        0.38          0.569        0.181
  YS02001898           JUNCTION        0.37          0.540        0.200
  YS02001901           JUNCTION        0.42          0.679        0.191
  YS02001904           JUNCTION        0.41          0.643        0.207
  YS02001907           JUNCTION        0.63          0.950        0.000
  YS02001910           JUNCTION        0.47          1.001        0.099
  YS02001915           JUNCTION        0.39          0.944        0.056
  YS02001918           JUNCTION        0.31          0.810        0.000
  YS02001920           JUNCTION        0.33          1.140        0.000
  YS02001923           JUNCTION        0.02          0.820        0.000
  YS02001926           JUNCTION        0.03          0.900        0.000
  YS02001929           JUNCTION        0.01          0.668        0.112
  YS02006553           JUNCTION        0.64          1.002        0.188
  YS02006556           JUNCTION        0.54          0.969        0.381
  YS02006558           JUNCTION        0.53          0.960        0.440
  YS02006561           JUNCTION        0.28          0.226        0.924
  YS02163301           JUNCTION        0.67          1.007        0.023
  YS02163601           JUNCTION        0.72          1.080        0.000
  YS02164001           JUNCTION        0.60          1.100        0.000
  
  
  *********************
  Node Flooding Summary
  *********************
  
  Flooding refers to all water that overflows a node, whether it ponds or not.
  --------------------------------------------------------------------------
                                                             Total   Maximum
                                 Maximum   Time of Max       Flood    Ponded
                        Hours       Rate    Occurrence      Volume     Depth
  Node                 Flooded       LPS   days hr:min    10^6 ltr    Meters
  --------------------------------------------------------------------------
  WS02006231              0.01     73.76      0  02:18       0.000     0.000
  WS02006234              0.01    152.46      0  02:30       0.001     0.000
  WS02006235              0.01     34.66      0  02:27       0.000     0.000
  WS02006238              0.01     26.87      0  02:18       0.000     0.000
  WS02006239              0.01     10.71      0  02:12       0.000     0.000
  WS02006240              0.01     20.11      0  02:12       0.000     0.000
  WS02006242              0.01     29.58      0  02:27       0.001     0.000
  WS02006243              0.01     33.98      0  01:53       0.000     0.000
  WS02006245              0.01      0.85      0  03:14       0.000     0.000
  WS02006247              0.01      0.89      0  03:14       0.000     0.000
  WS02006248              0.15     29.55      0  02:18       0.007     0.000
  WS02006249              1.08     79.35      0  01:57       0.196     0.000
  WS02006252              0.01    245.63      0  00:00       0.000     0.000
  WS02006256              1.49    319.15      0  02:18       0.543     0.000
  YS02001580              0.01     88.08      0  01:57       0.000     0.000
  YS02001586              0.37    244.58      0  02:04       0.174     0.000
  YS02001590              0.01     53.85      0  01:55       0.000     0.000
  YS02001600              0.01      5.07      0  01:57       0.000     0.000
  YS02001601              0.50    972.61      0  02:03       0.924     0.000
  YS02001602              0.36     61.94      0  02:11       0.071     0.000
  YS02001605              0.01      5.25      0  01:56       0.000     0.000
  YS02001610              0.31    481.90      0  02:04       0.342     0.000
  YS02001616              0.01     10.11      0  01:57       0.000     0.000
  YS02001619              0.01      1.45      0  01:57       0.000     0.000
  YS02001622              0.01      0.96      0  01:57       0.000     0.000
  YS02001625              0.25   1093.68      0  02:04       0.533     0.000
  YS02001629              0.07    189.88      0  02:02       0.029     0.000
  YS02001633              0.01      3.05      0  01:57       0.000     0.000
  YS02001641              0.01     21.09      0  01:57       0.000     0.000
  YS02001644              0.08    619.04      0  02:02       0.089     0.000
  YS02001649              0.01    100.03      0  02:01       0.000     0.000
  YS02001751              0.01     36.71      0  02:01       0.000     0.000
  YS02001754              0.01      9.15      0  02:01       0.000     0.000
  YS02001757              0.01     13.91      0  02:01       0.000     0.000
  YS02001762              0.01     13.07      0  02:01       0.000     0.000
  YS02001770              0.01     42.02      0  02:01       0.000     0.000
  YS02001779              0.07    374.19      0  01:59       0.027     0.000
  YS02001890              0.10    183.05      0  02:01       0.041     0.000
  YS02001907              0.26   1388.35      0  02:03       0.736     0.000
  YS02001918              0.01    208.71      0  02:00       0.003     0.000
  YS02001920              0.01     26.14      0  01:59       0.000     0.000
  YS02001923              0.01    212.94      0  01:59       0.001     0.000
  YS02001926              0.01    611.96      0  01:59       0.004     0.000
  YS02163601              0.01     10.79      0  01:57       0.000     0.000
  YS02164001              0.01     28.49      0  01:57       0.000     0.000
  
  
  **********************
  Storage Volume Summary
  **********************
  
  ------------------------------------------------------------------------------------------------
                         Average    Avg   Evap  Exfil     Maximum    Max    Time of Max    Maximum
                          Volume   Pcnt   Pcnt   Pcnt      Volume   Pcnt     Occurrence    Outflow
  Storage Unit           1000 m³   Full   Loss   Loss     1000 m³   Full    days hr:min        LPS
  ------------------------------------------------------------------------------------------------
  CC-storage               0.910   14.2    0.0    0.0       2.588   40.4       0  02:28    1783.53
  JK-storage               0.009    3.2    0.0    0.0       0.150   51.6       0  00:00    2300.00
  
  
  ***********************
  Outfall Loading Summary
  ***********************
  
  -----------------------------------------------------------
                         Flow       Avg       Max       Total
                         Freq      Flow      Flow      Volume
  Outfall Node           Pcnt       LPS       LPS    10^6 ltr
  -----------------------------------------------------------
  CC-1                  39.77    683.00    683.00       4.125
  CC-2                  39.77    683.00    683.00       4.125
  JK-1                   6.38   1000.00   1000.00       1.029
  JK-2                   6.38   1000.00   1000.00       1.029
  WSC                   99.94    224.78    555.14       4.590
  -----------------------------------------------------------
  System                38.45   3590.78   3905.21      14.898
  
  
  ********************
  Link Flow Summary
  ********************
  
  -----------------------------------------------------------------------------
                                 Maximum  Time of Max   Maximum    Max/    Max/
                                  |Flow|   Occurrence   |Veloc|    Full    Full
  Link                 Type          LPS  days hr:min     m/sec    Flow   Depth
  -----------------------------------------------------------------------------
  1                    CONDUIT    555.14     0  03:00      2.83    0.19    0.30
  WS02003060WS02003069 CONDUIT    554.04     0  02:59      1.64    0.22    0.34
  WS02003066WSF200     CONDUIT    537.39     0  02:58      2.85    0.09    0.22
  WS02003067WS02003066 CONDUIT    537.34     0  02:58      1.21    0.17    0.42
  WS02003069WS02003072 CONDUIT    553.89     0  02:59      1.37    0.27    0.39
  WS02003072WS02003073 CONDUIT    553.60     0  03:00      1.44    1.20    0.37
  WS02004401WS02004402 CONDUIT    543.32     0  02:58      1.22    0.65    0.89
  WS02004402WS02004403 CONDUIT    543.74     0  02:58      1.24    0.78    0.91
  WS02004403WS02004404 CONDUIT    554.85     0  02:56      1.24    0.40    0.96
  WS02004404WS02004405 CONDUIT    601.80     0  02:58      1.45    5.90    0.98
  WS02004405WS02004406 CONDUIT    543.25     0  02:55      1.46    1.07    0.96
  WS02004406WS02004407 CONDUIT    538.44     0  02:56      1.04    0.24    0.63
  WS02004407WS02004409 CONDUIT    538.12     0  02:56      1.59    0.19    0.48
  WS02004409WS02004410 CONDUIT    537.93     0  02:56      1.06    0.70    0.67
  WS02004410WS02004411 CONDUIT    537.50     0  02:57      1.13    0.73    0.69
  WS02004411WS02004412 CONDUIT    537.60     0  02:57      1.20    0.76    0.69
  WS02004412WS02004413 CONDUIT    537.39     0  02:57      1.22    0.36    0.78
  WS02004413WS02003067 CONDUIT    537.22     0  02:58      1.11    0.23    0.59
  WS02006109WS02006110 CONDUIT    571.97     0  02:08      1.14    1.10    1.00
  WS02006110WS02006113 CONDUIT    569.88     0  02:31      1.37    0.52    0.79
  WS02006111WS02006112 CONDUIT    544.77     0  02:43      1.95    0.26    0.67
  WS02006112WS02006115 CONDUIT    546.65     0  02:37      0.84    0.32    0.88
  WS02006113WS02006111 CONDUIT    560.77     0  02:36      2.47    0.67    0.46
  WS02006115WS02006116 CONDUIT    539.81     0  02:43      1.29    0.69    0.78
  WS02006116WS02004401 CONDUIT    543.61     0  02:58      1.21    0.75    0.86
  WS02006228WS02006109 CONDUIT    566.83     0  01:57      1.13    2.48    1.00
  WS02006229WS02006228 CONDUIT    563.42     0  01:57      1.12    1.87    1.00
  WS02006230WS02006229 CONDUIT    562.68     0  01:57      1.46   12.52    1.00
  WS02006231WS02006230 CONDUIT    588.67     0  01:57      1.60    8.93    1.00
  WS02006232WS02006231 CONDUIT    586.85     0  01:57      1.52    1.23    1.00
  WS02006234WS02006232 CONDUIT    582.33     0  01:57      1.51    1.18    1.00
  WS02006235WS02006234 CONDUIT    577.95     0  03:11      1.58    6.10    1.00
  WS02006238WS02006235 CONDUIT    427.04     0  02:35      1.45    0.95    1.00
  WS02006239WS02006238 CONDUIT    427.12     0  04:18      1.11    1.37    1.00
  WS02006240WS02006239 CONDUIT    427.23     0  04:18      1.26    1.34    1.00
  WS02006242WS02006240 CONDUIT    427.06     0  04:18      1.16    1.70    1.00
  WS02006243WS02006242 CONDUIT    426.38     0  04:18      1.40    0.91    1.00
  WS02006245WS02006243 CONDUIT    425.75     0  04:18      1.45    1.26    1.00
  WS02006247WS02006245 CONDUIT    425.50     0  04:18      1.43    3.37    1.00
  WS02006248WS02006247 CONDUIT    426.33     0  04:18      1.44    0.93    1.00
  WS02006249WS02006248 CONDUIT    425.62     0  03:06      1.38    2.33    1.00
  WS02006251WS02006249 CONDUIT    464.02     0  01:49      1.99    1.34    1.00
  WS02006252WS02006251 CONDUIT    405.56     0  02:46      4.89    1.49    1.00
  WS02006256WS02006235 CONDUIT    288.91     0  00:00      4.23    3.06    1.00
  WSF200WS02003060     CONDUIT    537.66     0  02:58      2.06    0.12    0.28
  YS02001580YS02001583 CONDUIT    124.64     0  01:56      0.77    0.48    1.00
  YS02001583YS02001586 CONDUIT    182.70     0  01:57      0.79    0.28    1.00
  YS02001586YS02001590 CONDUIT    318.12     0  02:07      1.26    0.56    1.00
  YS02001590YS02001593 CONDUIT    318.01     0  02:06      1.12    2.00    1.00
  YS02001593YS02001596 CONDUIT    317.97     0  02:06      1.75    0.50    1.00
  YS02001596YS02001600 CONDUIT    318.07     0  02:06      1.22    0.62    1.00
  YS02001600YS02001601 CONDUIT    317.89     0  02:06      1.12    0.55    1.00
  YS02001601YS02001602 CONDUIT    540.63     0  01:56      1.91    1.95    1.00
  YS02001602YS02001605 CONDUIT    540.16     0  01:56      1.91   11.43    1.00
  YS02001605YS02001607 CONDUIT    539.50     0  01:56      1.91    2.96    1.00
  YS02001607YS02001610 CONDUIT    542.78     0  01:56      0.69    0.52    1.00
  YS02001610YS02001613 CONDUIT    548.79     0  01:56      0.70    0.63    1.00
  YS02001613YS02001616 CONDUIT    552.16     0  01:56      0.71    0.47    1.00
  YS02001616YS02001619 CONDUIT    520.46     0  01:56      0.67    0.90    1.00
  YS02001619YS02001622 CONDUIT    942.09     0  02:18      1.21    1.39    1.00
  YS02001622YS02001625 CONDUIT    942.21     0  02:18      1.20    0.50    1.00
  YS02001625YS02001629 CONDUIT    942.52     0  02:18      1.20    0.45    1.00
  YS02001629YS02163301 CONDUIT    944.54     0  02:18      1.20    1.16    1.00
  YS02001633YS02163601 CONDUIT   1429.37     0  01:58      1.82    1.50    1.00
  YS02001641YS02001644 CONDUIT   1427.35     0  01:58      1.82    4.61    1.00
  YS02001644YS02001647 CONDUIT   1876.16     0  01:58      2.42    1.10    1.00
  YS02001647YS02001649 CONDUIT   1894.54     0  01:58      2.41    1.00    1.00
  YS02001649YS02001757 CONDUIT   2182.07     0  01:58      2.78    1.32    1.00
  YS02001652YS02001649 CONDUIT    901.68     0  02:02      1.15    0.45    1.00
  YS02001655YS02001652 CONDUIT    900.54     0  02:02      1.35    0.44    1.00
  YS02001658YS02001655 CONDUIT    899.35     0  02:02      1.97    0.38    1.00
  YS02001661YS02001658 CONDUIT    898.59     0  02:02      2.40    0.35    1.00
  YS02001664YS02001661 CONDUIT    880.56     0  02:02      2.47    0.28    0.88
  YS02001745YS02001748 CONDUIT    603.07     0  02:01      2.34    0.23    1.00
  YS02001748YS02001751 CONDUIT    604.81     0  02:01      1.79    0.31    1.00
  YS02001751YS02001754 CONDUIT    605.90     0  02:01      1.49    0.29    1.00
  YS02001754YS02001757 CONDUIT    608.58     0  02:01      0.77    0.25    1.00
  YS02001757CaochengTiaoxuchi CONDUIT   3462.96     0  02:01      6.03    1.50    0.92
  YS02001759YS02001757 CONDUIT   1479.21     0  02:01      1.88    1.05    1.00
  YS02001762YS02001759 CONDUIT    851.18     0  02:01      1.08    0.98    1.00
  YS02001765YS02001762 CONDUIT    845.44     0  02:01      1.08    0.79    1.00
  YS02001767YS02001765 CONDUIT    847.73     0  02:01      1.08    1.07    1.00
  YS02001770YS02001767 CONDUIT    849.05     0  02:01      1.08    3.36    1.00
  YS02001774YS02001770 CONDUIT    440.95     0  01:59      0.56    0.28    1.00
  YS02001779YS02001774 CONDUIT    448.29     0  01:59      0.57    0.23    1.00
  YS02001783YS02001784 CONDUIT   1160.70     0  02:01      2.31    1.60    1.00
  YS02001784YS02001785 CONDUIT   1162.24     0  02:01      2.31    2.70    1.00
  YS02001786YS02001788 CONDUIT   1163.44     0  02:00      2.48    2.24    0.89
  YS02001788YS02001790 CONDUIT   1176.74     0  01:59      2.73    0.87    0.84
  YS02001790YS02001791 CONDUIT   1279.56     0  02:03      3.42    1.39    0.70
  YS02001791YS02001793 CONDUIT   1241.76     0  02:03      6.78    0.53    0.42
  YS02001793JiankangQianchi CONDUIT   1339.93     0  02:02     14.93    0.11    0.50
  YS02001882YS02001884 CONDUIT     54.36     0  01:57      0.11    0.06    1.00
  YS02001884YS02001887 CONDUIT     87.81     0  01:57      0.11    0.12    1.00
  YS02001887YS02001890 CONDUIT    694.59     0  02:01      0.88    1.19    1.00
  YS02001890YS02001895 CONDUIT    517.38     0  02:04      0.66    0.24    1.00
  YS02001895YS02001898 CONDUIT    517.46     0  02:05      0.66    0.90    1.00
  YS02001898YS02001901 CONDUIT    517.86     0  02:05      0.66    0.33    1.00
  YS02001901YS02001904 CONDUIT    517.79     0  02:05      0.66    0.80    1.00
  YS02001904YS02001907 CONDUIT    517.98     0  02:05      0.66    0.18    1.00
  YS02001907YS02006553 CONDUIT    800.43     0  02:17      0.89    0.94    1.00
  YS02001910YS02001907 CONDUIT   1158.45     0  02:03      1.47    0.65    1.00
  YS02001915YS02001910 CONDUIT   1158.29     0  02:03      1.47    0.58    1.00
  YS02001918YS02001915 CONDUIT    509.08     0  01:59      0.65    0.28    1.00
  YS02001920YS02001918 CONDUIT    498.13     0  01:59      0.65    0.48    1.00
  YS02001923YS02001920 CONDUIT    499.91     0  01:59      0.70    0.22    1.00
  YS02001926YS02001923 CONDUIT    555.35     0  01:59      0.97    0.79    1.00
  YS02001929YS02001926 CONDUIT    482.38     0  01:59      1.18    0.23    1.00
  YS02006553YS02006556 CONDUIT    801.60     0  02:17      1.02    0.69    1.00
  YS02006556YS02006558 CONDUIT    803.32     0  02:17      1.02    0.63    1.00
  YS02006558YS02006561 CONDUIT   1161.73     0  01:59      4.11    2.57    1.00
  YS02006561YS02001783 CONDUIT   1160.77     0  02:01      2.31    0.60    1.00
  YS02163301YS02001633 CONDUIT    944.16     0  02:18      1.20    0.89    1.00
  YS02163601YS02164001 CONDUIT   1428.51     0  01:58      1.82    1.27    1.00
  YS02164001YS02001641 CONDUIT   1426.33     0  01:58      1.82    1.95    1.00
  CC-R1                PUMP       683.00     0  00:00              1.00
  CC-R2                PUMP       683.00     0  00:00              1.00
  CC-S1                PUMP       200.00     0  00:00              1.00
  CC-S2                PUMP       200.00     0  00:00              1.00
  JK-R1                PUMP      1000.00     0  00:00              1.00
  JK-R2                PUMP      1000.00     0  00:00              1.00
  JK-S                 PUMP       300.00     0  00:00              1.00
  
  
  ***************************
  Flow Classification Summary
  ***************************
  
  -------------------------------------------------------------------------------------
                      Adjusted    ---------- Fraction of Time in Flow Class ---------- 
                       /Actual         Up    Down  Sub   Sup   Up    Down  Norm  Inlet 
  Conduit               Length    Dry  Dry   Dry   Crit  Crit  Crit  Crit  Ltd   Ctrl  
  -------------------------------------------------------------------------------------
  1                       1.00   0.00  0.00  0.00  0.00  1.00  0.00  0.00  0.39  0.00
  WS02003060WS02003069    1.00   0.00  0.00  0.00  0.97  0.03  0.00  0.00  0.76  0.00
  WS02003066WSF200        1.00   0.05  0.00  0.00  0.00  0.95  0.00  0.00  0.83  0.00
  WS02003067WS02003066    1.00   0.05  0.00  0.00  0.95  0.00  0.00  0.00  0.00  0.00
  WS02003069WS02003072    1.00   0.00  0.00  0.00  0.99  0.01  0.00  0.00  0.78  0.00
  WS02003072WS02003073    1.00   0.00  0.00  0.00  0.00  0.00  0.00  1.00  0.00  0.00
  WS02004401WS02004402    1.00   0.02  0.00  0.00  0.98  0.00  0.00  0.00  0.00  0.00
  WS02004402WS02004403    1.00   0.02  0.00  0.00  0.98  0.00  0.00  0.00  0.00  0.00
  WS02004403WS02004404    1.00   0.00  0.03  0.00  0.97  0.00  0.00  0.00  0.00  0.00
  WS02004404WS02004405    1.00   0.00  0.00  0.00  1.00  0.00  0.00  0.00  0.01  0.00
  WS02004405WS02004406    1.00   0.00  0.00  0.00  1.00  0.00  0.00  0.00  0.00  0.00
  WS02004406WS02004407    1.00   0.00  0.03  0.00  0.97  0.00  0.00  0.00  0.00  0.00
  WS02004407WS02004409    1.00   0.03  0.00  0.00  0.95  0.01  0.00  0.00  0.95  0.00
  WS02004409WS02004410    1.00   0.03  0.00  0.00  0.96  0.00  0.00  0.00  0.00  0.00
  WS02004410WS02004411    1.00   0.04  0.00  0.00  0.96  0.00  0.00  0.00  0.00  0.00
  WS02004411WS02004412    1.00   0.04  0.00  0.00  0.96  0.00  0.00  0.00  0.00  0.00
  WS02004412WS02004413    1.00   0.04  0.00  0.00  0.96  0.00  0.00  0.00  0.00  0.00
  WS02004413WS02003067    1.00   0.04  0.01  0.00  0.00  0.00  0.95  0.00  0.00  0.00
  WS02006109WS02006110    1.00   0.00  0.01  0.00  0.98  0.00  0.01  0.00  0.00  0.00
  WS02006110WS02006113    1.00   0.01  0.01  0.00  0.98  0.00  0.00  0.00  0.00  0.00
  WS02006111WS02006112    1.00   0.02  0.00  0.00  0.98  0.00  0.00  0.00  0.98  0.00
  WS02006112WS02006115    1.00   0.02  0.00  0.00  0.97  0.00  0.00  0.00  0.00  0.00
  WS02006113WS02006111    1.00   0.02  0.00  0.00  0.00  0.98  0.00  0.00  0.13  0.00
  WS02006115WS02006116    1.00   0.02  0.00  0.00  0.97  0.00  0.00  0.01  0.00  0.00
  WS02006116WS02004401    1.00   0.02  0.00  0.00  0.98  0.00  0.00  0.00  0.00  0.00
  WS02006228WS02006109    1.00   0.00  0.00  0.00  1.00  0.00  0.00  0.00  0.00  0.00
  WS02006229WS02006228    1.00   0.00  0.00  0.00  0.99  0.00  0.00  0.01  0.00  0.00
  WS02006230WS02006229    1.00   0.00  0.00  0.00  0.99  0.00  0.00  0.01  0.02  0.00
  WS02006231WS02006230    1.00   0.00  0.00  0.00  0.24  0.00  0.76  0.00  0.00  0.00
  WS02006232WS02006231    1.00   0.00  0.00  0.00  0.98  0.00  0.02  0.00  0.00  0.00
  WS02006234WS02006232    1.00   0.00  0.00  0.00  1.00  0.00  0.00  0.00  0.08  0.00
  WS02006235WS02006234    1.00   0.00  0.00  0.00  0.90  0.00  0.10  0.00  0.00  0.00
  WS02006238WS02006235    1.00   0.00  0.00  0.00  0.99  0.01  0.00  0.00  0.00  0.00
  WS02006239WS02006238    1.00   0.00  0.00  0.00  1.00  0.00  0.00  0.00  0.27  0.00
  WS02006240WS02006239    1.00   0.00  0.00  0.00  0.61  0.00  0.00  0.39  0.04  0.00
  WS02006242WS02006240    1.00   0.00  0.00  0.00  0.99  0.00  0.00  0.00  0.03  0.00
  WS02006243WS02006242    1.00   0.00  0.00  0.00  0.99  0.00  0.00  0.01  0.65  0.00
  WS02006245WS02006243    1.00   0.00  0.00  0.00  0.48  0.00  0.00  0.52  0.04  0.00
  WS02006247WS02006245    1.00   0.00  0.00  0.00  0.99  0.00  0.00  0.01  0.00  0.00
  WS02006248WS02006247    1.00   0.00  0.00  0.00  0.99  0.00  0.00  0.01  0.19  0.00
  WS02006249WS02006248    1.00   0.00  0.00  0.00  0.31  0.00  0.69  0.00  0.00  0.00
  WS02006251WS02006249    1.00   0.00  0.00  0.00  0.99  0.00  0.00  0.00  0.70  0.00
  WS02006252WS02006251    1.00   0.00  0.19  0.00  0.15  0.00  0.66  0.00  0.00  0.00
  WS02006256WS02006235    1.00   0.00  0.00  0.00  0.98  0.02  0.00  0.00  0.00  0.00
  WSF200WS02003060        1.00   0.00  0.05  0.00  0.45  0.50  0.00  0.00  0.70  0.00
  YS02001580YS02001583    1.00   0.24  0.58  0.00  0.17  0.00  0.00  0.00  0.68  0.00
  YS02001583YS02001586    1.00   0.42  0.35  0.00  0.23  0.00  0.00  0.00  0.68  0.00
  YS02001586YS02001590    1.00   0.13  0.00  0.00  0.41  0.04  0.00  0.42  0.37  0.00
  YS02001590YS02001593    1.00   0.13  0.01  0.00  0.09  0.00  0.77  0.00  0.00  0.00
  YS02001593YS02001596    1.00   0.14  0.00  0.00  0.11  0.01  0.00  0.74  0.02  0.00
  YS02001596YS02001600    1.00   0.14  0.00  0.00  0.18  0.01  0.00  0.67  0.05  0.00
  YS02001600YS02001601    1.00   0.13  0.01  0.00  0.86  0.00  0.00  0.00  0.62  0.00
  YS02001601YS02001602    1.00   0.13  0.01  0.00  0.86  0.00  0.00  0.00  0.00  0.00
  YS02001602YS02001605    1.00   0.14  0.00  0.00  0.86  0.00  0.00  0.00  0.00  0.00
  YS02001605YS02001607    1.00   0.14  0.00  0.00  0.86  0.00  0.00  0.00  0.00  0.00
  YS02001607YS02001610    1.00   0.13  0.01  0.00  0.86  0.00  0.00  0.00  0.02  0.00
  YS02001610YS02001613    1.00   0.13  0.00  0.00  0.87  0.00  0.00  0.00  0.01  0.00
  YS02001613YS02001616    1.00   0.13  0.00  0.00  0.87  0.00  0.00  0.00  0.01  0.00
  YS02001616YS02001619    1.00   0.13  0.00  0.00  0.87  0.00  0.00  0.00  0.00  0.00
  YS02001619YS02001622    1.00   0.13  0.00  0.00  0.87  0.00  0.00  0.00  0.29  0.00
  YS02001622YS02001625    1.00   0.13  0.00  0.00  0.87  0.00  0.00  0.00  0.05  0.00
  YS02001625YS02001629    1.00   0.13  0.06  0.00  0.14  0.00  0.68  0.00  0.00  0.00
  YS02001629YS02163301    1.00   0.16  0.01  0.00  0.83  0.00  0.00  0.00  0.00  0.00
  YS02001633YS02163601    1.00   0.00  0.01  0.00  0.99  0.00  0.00  0.00  0.15  0.00
  YS02001641YS02001644    1.00   0.00  0.01  0.00  0.99  0.00  0.00  0.00  0.00  0.00
  YS02001644YS02001647    1.00   0.00  0.18  0.00  0.82  0.00  0.00  0.00  0.00  0.00
  YS02001647YS02001649    1.00   0.00  0.18  0.00  0.49  0.33  0.00  0.00  0.57  0.00
  YS02001649YS02001757    1.00   0.00  0.00  0.00  0.63  0.37  0.00  0.00  0.55  0.00
  YS02001652YS02001649    1.00   0.00  0.00  0.00  0.96  0.04  0.00  0.00  0.76  0.00
  YS02001655YS02001652    1.00   0.00  0.00  0.00  0.16  0.01  0.00  0.83  0.09  0.00
  YS02001658YS02001655    1.00   0.00  0.15  0.00  0.59  0.26  0.00  0.00  0.75  0.00
  YS02001661YS02001658    1.00   0.14  0.00  0.00  0.43  0.42  0.00  0.00  0.73  0.00
  YS02001664YS02001661    1.00   0.13  0.00  0.00  0.75  0.12  0.00  0.00  0.86  0.00
  YS02001745YS02001748    1.00   0.00  0.00  0.00  0.03  0.01  0.00  0.97  0.02  0.00
  YS02001748YS02001751    1.00   0.00  0.00  0.00  0.75  0.25  0.00  0.00  0.83  0.00
  YS02001751YS02001754    1.00   0.00  0.00  0.00  0.09  0.01  0.00  0.90  0.04  0.00
  YS02001754YS02001757    1.00   0.00  0.00  0.00  1.00  0.00  0.00  0.00  0.88  0.00
  YS02001757CaochengTiaoxuchi    1.00   0.00  0.00  0.00  0.74  0.26  0.00  0.00  0.81  0.00
  YS02001759YS02001757    1.00   0.00  0.00  0.00  1.00  0.00  0.00  0.00  0.63  0.00
  YS02001762YS02001759    1.00   0.00  0.00  0.00  1.00  0.00  0.00  0.00  0.04  0.00
  YS02001765YS02001762    1.00   0.00  0.00  0.00  1.00  0.00  0.00  0.00  0.75  0.00
  YS02001767YS02001765    1.00   0.00  0.00  0.00  1.00  0.00  0.00  0.00  0.00  0.00
  YS02001770YS02001767    1.00   0.00  0.00  0.00  1.00  0.00  0.00  0.00  0.00  0.00
  YS02001774YS02001770    1.00   0.00  0.14  0.00  0.70  0.00  0.16  0.00  0.04  0.00
  YS02001779YS02001774    1.00   0.00  0.00  0.00  1.00  0.00  0.00  0.00  0.80  0.00
  YS02001783YS02001784    1.00   0.00  0.19  0.00  0.81  0.00  0.00  0.00  0.56  0.00
  YS02001784YS02001785    1.00   0.00  0.00  0.00  1.00  0.00  0.00  0.00  0.18  0.00
  YS02001786YS02001788    1.00   0.00  0.00  0.00  0.80  0.20  0.00  0.00  0.00  0.00
  YS02001788YS02001790    1.00   0.00  0.00  0.00  0.22  0.78  0.00  0.00  0.82  0.00
  YS02001790YS02001791    1.00   0.00  0.00  0.00  0.01  0.99  0.00  0.00  0.16  0.00
  YS02001791YS02001793    1.00   0.00  0.00  0.00  0.00  1.00  0.00  0.00  0.01  0.00
  YS02001793JiankangQianchi    1.00   0.00  0.00  0.00  0.66  0.34  0.00  0.00  0.95  0.00
  YS02001882YS02001884    1.00   0.16  0.01  0.00  0.83  0.00  0.00  0.00  0.00  0.00
  YS02001884YS02001887    1.00   0.06  0.05  0.00  0.89  0.00  0.00  0.00  0.00  0.00
  YS02001887YS02001890    1.00   0.00  0.00  0.00  0.97  0.00  0.03  0.00  0.00  0.00
  YS02001890YS02001895    1.00   0.00  0.17  0.00  0.83  0.00  0.00  0.00  0.00  0.00
  YS02001895YS02001898    1.00   0.17  0.00  0.00  0.81  0.00  0.02  0.00  0.00  0.00
  YS02001898YS02001901    1.00   0.17  0.00  0.00  0.82  0.00  0.00  0.00  0.01  0.00
  YS02001901YS02001904    1.00   0.17  0.00  0.00  0.83  0.00  0.00  0.00  0.00  0.00
  YS02001904YS02001907    1.00   0.00  0.17  0.00  0.83  0.00  0.00  0.00  0.00  0.00
  YS02001907YS02006553    1.00   0.00  0.02  0.00  0.98  0.00  0.00  0.00  0.00  0.00
  YS02001910YS02001907    1.00   0.00  0.00  0.00  0.97  0.00  0.00  0.03  0.12  0.00
  YS02001915YS02001910    1.00   0.00  0.00  0.00  0.96  0.04  0.00  0.00  0.17  0.00
  YS02001918YS02001915    1.00   0.00  0.01  0.00  0.98  0.02  0.00  0.00  0.76  0.00
  YS02001920YS02001918    1.00   0.00  0.01  0.00  0.99  0.00  0.00  0.00  0.00  0.00
  YS02001923YS02001920    1.00   0.00  0.00  0.00  1.00  0.00  0.00  0.00  0.94  0.00
  YS02001926YS02001923    1.00   0.00  0.07  0.00  0.05  0.00  0.88  0.00  0.00  0.00
  YS02001929YS02001926    1.00   0.00  0.13  0.00  0.87  0.00  0.00  0.00  0.83  0.00
  YS02006553YS02006556    1.00   0.01  0.00  0.00  0.99  0.00  0.00  0.00  0.03  0.00
  YS02006556YS02006558    1.00   0.00  0.00  0.00  1.00  0.00  0.00  0.00  0.00  0.00
  YS02006558YS02006561    1.00   0.19  0.00  0.00  0.05  0.77  0.00  0.00  0.19  0.00
  YS02006561YS02001783    1.00   0.19  0.00  0.00  0.07  0.74  0.00  0.00  0.70  0.00
  YS02163301YS02001633    1.00   0.00  0.16  0.00  0.84  0.00  0.00  0.00  0.00  0.00
  YS02163601YS02164001    1.00   0.00  0.08  0.00  0.92  0.00  0.00  0.00  0.00  0.00
  YS02164001YS02001641    1.00   0.01  0.08  0.00  0.92  0.00  0.00  0.00  0.06  0.00
  
  
  *************************
  Conduit Surcharge Summary
  *************************
  
  ----------------------------------------------------------------------------
                                                           Hours        Hours 
                         --------- Hours Full --------   Above Full   Capacity
  Conduit                Both Ends  Upstream  Dnstream   Normal Flow   Limited
  ----------------------------------------------------------------------------
  WS02003072WS02003073        0.01      0.01      0.01      1.26         0.01
  WS02004403WS02004404        0.01      0.01      0.01      0.01         0.01
  WS02004404WS02004405        0.01      0.01      0.01      2.64         0.01
  WS02004405WS02004406        0.01      0.01      0.01      0.92         0.01
  WS02006109WS02006110        0.43      0.43      1.71      0.67         0.01
  WS02006110WS02006113        0.01      0.01      1.68      0.01         0.01
  WS02006111WS02006112        0.01      0.01      1.81      0.01         0.01
  WS02006112WS02006115        0.01      0.01      1.18      0.01         0.01
  WS02006228WS02006109        1.60      1.71      1.60      2.10         1.60
  WS02006229WS02006228        1.58      1.63      1.58      1.95         1.56
  WS02006230WS02006229        1.83      1.90      1.83      3.24         1.82
  WS02006231WS02006230        0.48      0.48      1.09      2.74         0.01
  WS02006232WS02006231        0.91      0.91      1.75      0.98         0.01
  WS02006234WS02006232        1.39      1.39      1.75      0.95         0.86
  WS02006235WS02006234        1.13      1.16      1.45      2.58         0.09
  WS02006238WS02006235        1.51      1.51      1.77      0.01         0.04
  WS02006239WS02006238        1.63      1.75      1.63      1.89         1.35
  WS02006240WS02006239        1.56      1.67      1.58      1.90         1.21
  WS02006242WS02006240        1.64      1.64      1.83      2.00         0.02
  WS02006243WS02006242        1.68      1.68      1.79      0.01         0.22
  WS02006245WS02006243        1.65      1.67      1.66      1.53         0.98
  WS02006247WS02006245        1.65      1.71      1.65      2.08         1.55
  WS02006248WS02006247        1.66      1.66      1.69      0.01         0.24
  WS02006249WS02006248        1.64      1.64      1.67      2.07         0.01
  WS02006251WS02006249        1.66      1.68      1.67      2.05         1.49
  WS02006252WS02006251        2.09      2.09      2.09      2.09         0.01
  WS02006256WS02006235        2.45      2.64      5.29      1.53         0.02
  YS02001580YS02001583        0.47      0.47      0.50      0.01         0.01
  YS02001583YS02001586        0.48      0.48      0.57      0.01         0.01
  YS02001586YS02001590        0.58      0.58      0.64      0.01         0.01
  YS02001590YS02001593        0.64      0.64      0.66      0.69         0.01
  YS02001593YS02001596        0.65      0.65      0.74      0.01         0.01
  YS02001596YS02001600        0.78      0.78      0.88      0.01         0.01
  YS02001600YS02001601        0.95      0.95      1.28      0.01         0.01
  YS02001601YS02001602        1.14      1.14      1.32      0.90         0.01
  YS02001602YS02001605        1.08      1.08      1.14      2.10         0.01
  YS02001605YS02001607        1.03      1.08      1.03      1.23         1.03
  YS02001607YS02001610        0.58      0.58      0.60      0.01         0.01
  YS02001610YS02001613        0.57      0.57      0.60      0.01         0.01
  YS02001613YS02001616        0.53      0.53      0.57      0.01         0.01
  YS02001616YS02001619        0.51      0.51      0.53      0.01         0.01
  YS02001619YS02001622        0.50      0.51      0.50      0.68         0.48
  YS02001622YS02001625        0.50      0.50      0.69      0.01         0.01
  YS02001625YS02001629        0.41      0.41      0.69      0.01         0.01
  YS02001629YS02163301        0.67      0.67      0.67      0.32         0.30
  YS02001633YS02163601        0.69      0.69      0.72      0.44         0.44
  YS02001641YS02001644        0.52      0.58      0.52      1.35         0.51
  YS02001644YS02001647        0.31      0.31      0.52      0.05         0.01
  YS02001647YS02001649        0.31      0.31      0.34      0.01         0.01
  YS02001649YS02001757        0.33      0.34      0.33      0.38         0.29
  YS02001652YS02001649        0.25      0.25      0.34      0.01         0.01
  YS02001655YS02001652        0.17      0.17      0.23      0.01         0.01
  YS02001658YS02001655        0.09      0.09      0.17      0.01         0.01
  YS02001661YS02001658        0.01      0.01      0.09      0.01         0.01
  YS02001664YS02001661        0.01      0.01      0.02      0.01         0.01
  YS02001745YS02001748        0.01      0.01      0.02      0.01         0.01
  YS02001748YS02001751        0.08      0.08      0.11      0.01         0.01
  YS02001751YS02001754        0.11      0.11      0.17      0.01         0.01
  YS02001754YS02001757        0.18      0.18      0.33      0.01         0.01
  YS02001757CaochengTiaoxuchi        0.01      0.33      0.01      0.41         0.01
  YS02001759YS02001757        0.28      0.28      0.33      0.01         0.03
  YS02001762YS02001759        0.27      0.27      0.28      0.01         0.03
  YS02001765YS02001762        0.25      0.25      0.27      0.01         0.01
  YS02001767YS02001765        0.24      0.24      0.25      0.02         0.05
  YS02001770YS02001767        0.24      0.24      0.24      0.49         0.23
  YS02001774YS02001770        0.23      0.23      0.27      0.01         0.01
  YS02001779YS02001774        0.18      0.18      0.27      0.01         0.01
  YS02001783YS02001784        0.42      0.44      0.42      0.57         0.42
  YS02001784YS02001785        0.33      0.42      0.33      0.77         0.33
  YS02001786YS02001788        0.01      0.33      0.01      0.65         0.01
  YS02001790YS02001791        0.01      0.01      0.01      0.41         0.01
  YS02001882YS02001884        0.39      0.39      0.40      0.01         0.01
  YS02001884YS02001887        0.42      0.42      0.43      0.01         0.01
  YS02001887YS02001890        0.44      0.44      0.45      0.07         0.01
  YS02001890YS02001895        0.38      0.38      0.47      0.01         0.01
  YS02001895YS02001898        0.37      0.37      0.38      0.01         0.01
  YS02001898YS02001901        0.39      0.39      0.42      0.01         0.01
  YS02001901YS02001904        0.41      0.41      0.42      0.01         0.01
  YS02001904YS02001907        0.41      0.41      0.64      0.01         0.01
  YS02001907YS02006553        0.78      0.78      0.84      0.01         0.01
  YS02001910YS02001907        0.47      0.47      0.62      0.01         0.01
  YS02001915YS02001910        0.39      0.39      0.47      0.01         0.01
  YS02001918YS02001915        0.31      0.31      0.39      0.01         0.01
  YS02001920YS02001918        0.31      0.31      0.33      0.01         0.01
  YS02001923YS02001920        0.27      0.27      0.33      0.01         0.01
  YS02001926YS02001923        0.01      0.02      0.03      0.01         0.01
  YS02001929YS02001926        0.01      0.01      0.03      0.01         0.01
  YS02006553YS02006556        0.54      0.54      0.64      0.01         0.01
  YS02006556YS02006558        0.59      0.59      0.65      0.01         0.01
  YS02006558YS02006561        0.35      0.53      0.35      0.72         0.35
  YS02006561YS02001783        0.28      0.28      0.44      0.01         0.01
  YS02163301YS02001633        0.67      0.67      0.71      0.01         0.01
  YS02163601YS02164001        0.60      0.60      0.72      0.26         0.01
  YS02164001YS02001641        0.58      0.60      0.58      0.67         0.48
  
  
  ***************
  Pumping Summary
  ***************
  
  ---------------------------------------------------------------------------------------------------------
                                                  Min       Avg       Max     Total     Power    % Time Off
                        Percent   Number of      Flow      Flow      Flow    Volume     Usage    Pump Curve
  Pump                 Utilized   Start-Ups       LPS       LPS       LPS  10^6 ltr     Kw-hr    Low   High
  ---------------------------------------------------------------------------------------------------------
  CC-R1                   21.18           2      0.00    683.00    683.00     4.124     68.39    0.0  100.0
  CC-R2                   21.18           2      0.00    683.00    683.00     4.124     68.39    0.0  100.0
  CC-S1                   26.36           3      0.00    200.00    200.00     1.503     11.70    0.0   34.4
  CC-S2                   26.36           3      0.00    200.00    200.00     1.503     11.70    0.0   34.4
  JK-R1                    3.65          47      0.00   1000.00   1000.00     1.039      3.34    0.0    0.0
  JK-R2                    3.65          47      0.00   1000.00   1000.00     1.039      3.34    0.0    0.0
  JK-S                    18.83          85      0.00    300.00    300.00     1.610     35.92    0.0    0.0
  

  Analysis begun on:  Tue Apr 22 10:18:08 2025
  Analysis ended on:  Tue Apr 22 10:18:10 2025
  Total elapsed time: 00:00:02