
  EPA STORM WATER MANAGEMENT MODEL - VERSION 5.2 (Build 5.2.4)
  PYSWMM TOOLKIT API - VERSION v1.0 (2023-11-27)
  ------------------------------------------------------------

  WARNING 04: minimum elevation drop used for Conduit WS02004404WS02004405
  WARNING 03: negative offset ignored for Link YS02001904YS02001907
  
  ****************
  Analysis Options
  ****************
  Flow Units ............... LPS
  Process Models:
    Rainfall/Runoff ........ YES
    RDII ................... NO
    Snowmelt ............... NO
    Groundwater ............ NO
    Flow Routing ........... YES
    Ponding Allowed ........ NO
    Water Quality .......... NO
  Infiltration Method ...... HORTON
  Flow Routing Method ...... DYNWAVE
  Surcharge Method ......... EXTRAN
  Starting Date ............ 08/28/2015 08:00:00
  Ending Date .............. 08/28/2015 16:00:00
  Antecedent Dry Days ...... 8.0
  Report Time Step ......... 00:01:00
  Wet Time Step ............ 00:01:00
  Dry Time Step ............ 00:01:00
  Routing Time Step ........ 30.00 sec
  Variable Time Step ....... YES
  Maximum Trials ........... 8
  Number of Threads ........ 4
  Head Tolerance ........... 0.001500 m
  
  
  **************************        Volume         Depth
  Runoff Quantity Continuity     hectare-m            mm
  **************************     ---------       -------
  Total Precipitation ......         1.839        55.437
  Evaporation Loss .........         0.000         0.000
  Infiltration Loss ........         0.097         2.935
  Surface Runoff ...........         1.709        51.518
  Final Storage ............         0.033         0.995
  Continuity Error (%) .....        -0.020
  
  
  **************************        Volume        Volume
  Flow Routing Continuity        hectare-m      10^6 ltr
  **************************     ---------     ---------
  Dry Weather Inflow .......         0.025         0.248
  Wet Weather Inflow .......         1.708        17.083
  Groundwater Inflow .......         0.000         0.000
  RDII Inflow ..............         0.000         0.000
  External Inflow ..........         0.083         0.825
  External Outflow .........         1.604        16.037
  Flooding Loss ............         0.387         3.872
  Evaporation Loss .........         0.000         0.000
  Exfiltration Loss ........         0.000         0.000
  Initial Stored Volume ....         0.243         2.431
  Final Stored Volume ......         0.077         0.773
  Continuity Error (%) .....        -0.456
  
  
  *************************
  Highest Continuity Errors
  *************************
  Node YS02001583 (-9.50%)
  Node YS02001884 (5.17%)
  Node WS02006256 (-3.45%)
  Node YS02001774 (1.34%)
  
  
  ***************************
  Time-Step Critical Elements
  ***************************
  Link WS02006238WS02006235 (28.69%)
  Link WS02004404WS02004405 (26.10%)
  Link WS02003066WSF200 (12.82%)
  Link YS02001791YS02001793 (6.00%)
  Link YS02001793JiankangQianchi (3.47%)
  
  
  ********************************
  Highest Flow Instability Indexes
  ********************************
  Link WS02006113WS02006111 (36)
  Link WS02006252WS02006251 (25)
  Link WS02006238WS02006235 (22)
  Link WS02006256WS02006235 (20)
  Link WS02006111WS02006112 (18)
  
  
  *********************************
  Most Frequent Nonconverging Nodes
  *********************************
  Node CC-1 (29.91%)
  Node CC-2 (29.91%)
  Node JK-1 (29.91%)
  Node JK-2 (29.91%)
  Node WSC (29.91%)
  
  
  *************************
  Routing Time Step Summary
  *************************
  Minimum Time Step           :     0.01 sec
  Average Time Step           :     3.02 sec
  Maximum Time Step           :     6.43 sec
  % of Time in Steady State   :     0.00
  Average Iterations per Step :     4.16
  % of Steps Not Converging   :    29.91
  Time Step Frequencies       :
     30.000 - 13.228 sec      :     0.00 %
     13.228 -  5.833 sec      :    16.91 %
      5.833 -  2.572 sec      :    32.16 %
      2.572 -  1.134 sec      :    35.13 %
      1.134 -  0.500 sec      :    15.80 %
  
  
  ***************************
  Subcatchment Runoff Summary
  ***************************
  
  ------------------------------------------------------------------------------------------------------------------------------
                            Total      Total      Total      Total     Imperv       Perv      Total       Total     Peak  Runoff
                           Precip      Runon       Evap      Infil     Runoff     Runoff     Runoff      Runoff   Runoff   Coeff
  Subcatchment                 mm         mm         mm         mm         mm         mm         mm    10^6 ltr      LPS
  ------------------------------------------------------------------------------------------------------------------------------
  sub60                     55.44       0.00       0.00       1.79      47.58       4.87      52.44        0.69   422.04   0.946
  sub61                     55.44       0.00       0.00       2.59      44.88       6.84      51.72        0.95   582.42   0.933
  sub62                     55.44       0.00       0.00       1.19      49.71       3.24      52.96        1.45   822.79   0.955
  sub63                     55.44       0.00       0.00       4.74      38.39      11.34      49.72        1.13   640.64   0.897
  sub64                     55.44       0.00       0.00       2.40      45.91       5.92      51.83        1.24   660.02   0.935
  sub65                     55.44       0.00       0.00       2.08      46.97       5.13      52.10        1.43   737.82   0.940
  sub66                     55.44       0.00       0.00       5.81      38.28      10.27      48.55        2.26   940.88   0.876
  sub67                     55.44       0.00       0.00       1.15      49.75       3.28      53.04        0.99   643.60   0.957
  sub68                     55.44       0.00       0.00       2.14      46.49       5.62      52.11        1.43   841.05   0.940
  sub69                     55.44       0.00       0.00       1.89      47.01       6.43      53.44        1.98   987.98   0.964
  sub70                     55.44       0.00       0.00       6.21      36.42      12.64      49.07        1.42   532.25   0.885
  sub71                     55.44       0.00       0.00       1.22      49.67       3.22      52.89        1.38   718.58   0.954
  sub72                     55.44       0.00       0.00       1.08      50.15       2.80      52.95        0.73   344.39   0.955
  
  
  ******************
  Node Depth Summary
  ******************
  
  ---------------------------------------------------------------------------------
                                 Average  Maximum  Maximum  Time of Max    Reported
                                   Depth    Depth      HGL   Occurrence   Max Depth
  Node                 Type       Meters   Meters   Meters  days hr:min      Meters
  ---------------------------------------------------------------------------------
  WS02003060           JUNCTION     0.22     0.38     5.32     0  02:58        0.38
  WS02003066           JUNCTION     0.18     0.30     5.85     0  02:58        0.30
  WS02003067           JUNCTION     0.47     0.70     6.02     0  02:58        0.70
  WS02003069           JUNCTION     0.24     0.43     5.01     0  02:59        0.43
  WS02003072           JUNCTION     0.30     0.50     4.87     0  03:00        0.50
  WS02003073           JUNCTION     0.17     0.30     4.36     0  03:00        0.30
  WS02004401           JUNCTION     0.57     0.85     6.85     0  02:55        0.85
  WS02004402           JUNCTION     0.60     0.88     6.84     0  02:55        0.88
  WS02004403           JUNCTION     0.62     0.89     6.82     0  02:56        0.89
  WS02004404           JUNCTION     0.69     0.96     6.81     0  02:56        0.96
  WS02004405           JUNCTION     0.69     0.96     6.81     0  02:56        0.96
  WS02004406           JUNCTION     0.70     0.96     6.79     0  02:56        0.96
  WS02004407           JUNCTION     0.17     0.30     6.61     0  02:56        0.30
  WS02004409           JUNCTION     0.37     0.67     6.44     0  02:56        0.67
  WS02004410           JUNCTION     0.39     0.68     6.40     0  02:57        0.68
  WS02004411           JUNCTION     0.41     0.69     6.37     0  02:57        0.69
  WS02004412           JUNCTION     0.43     0.70     6.34     0  02:57        0.70
  WS02004413           JUNCTION     0.58     0.86     6.33     0  02:58        0.86
  WS02006109           JUNCTION     0.65     1.22     7.84     0  02:38        1.22
  WS02006110           JUNCTION     0.65     1.22     7.81     0  02:24        1.12
  WS02006111           JUNCTION     0.17     0.29     6.99     0  02:44        0.29
  WS02006112           JUNCTION     0.73     1.10     6.98     0  03:09        1.09
  WS02006113           JUNCTION     0.27     0.46     7.35     0  02:39        0.46
  WS02006115           JUNCTION     0.46     0.75     6.89     0  02:57        0.75
  WS02006116           JUNCTION     0.54     0.83     6.87     0  02:55        0.83
  WS02006228           JUNCTION     0.65     1.23     7.88     0  02:30        1.20
  WS02006229           JUNCTION     0.63     1.29     7.98     0  02:30        1.18
  WS02006230           JUNCTION     0.64     1.49     8.24     0  02:30        1.34
  WS02006231           JUNCTION     0.44     2.24     9.36     0  02:09        1.09
  WS02006232           JUNCTION     0.58     2.18     9.22     0  01:48        2.18
  WS02006234           JUNCTION     0.51     1.96     9.12     0  01:48        1.96
  WS02006235           JUNCTION     0.55     2.00     9.16     0  01:48        2.00
  WS02006238           JUNCTION     0.58     2.15     9.29     0  02:25        2.15
  WS02006239           JUNCTION     0.55     2.03     9.24     0  02:24        2.03
  WS02006240           JUNCTION     0.52     2.10     9.39     0  02:25        2.10
  WS02006242           JUNCTION     0.58     1.55     8.82     0  01:48        1.55
  WS02006243           JUNCTION     0.50     1.48     8.90     0  02:13        1.48
  WS02006245           JUNCTION     0.50     1.56     9.04     0  02:25        1.56
  WS02006247           JUNCTION     0.52     1.47     8.97     0  02:25        1.47
  WS02006248           JUNCTION     0.49     1.10     8.69     0  01:48        1.10
  WS02006249           JUNCTION     0.51     1.09     8.69     0  01:46        1.09
  WS02006251           JUNCTION     0.51     1.38     9.05     0  01:47        1.27
  WS02006252           JUNCTION     0.32     1.50     9.74     0  00:00        1.17
  WS02006256           JUNCTION     1.13     2.35     9.28     0  00:00        2.35
  WSF200               JUNCTION     0.15     0.29     5.52     0  02:58        0.29
  YS02001580           JUNCTION     0.13     1.05     9.59     0  01:46        0.77
  YS02001583           JUNCTION     0.16     1.14     9.64     0  01:46        0.82
  YS02001586           JUNCTION     0.26     1.13     9.30     0  01:46        1.13
  YS02001590           JUNCTION     0.36     1.40     9.26     0  01:46        1.40
  YS02001593           JUNCTION     0.30     1.46     9.32     0  01:45        1.46
  YS02001596           JUNCTION     0.41     1.80     9.22     0  01:45        1.80
  YS02001600           JUNCTION     0.49     1.87     9.00     0  01:45        1.87
  YS02001601           JUNCTION     0.67     2.06     8.90     0  01:44        2.06
  YS02001602           JUNCTION     0.58     1.87     8.77     0  01:45        1.87
  YS02001605           JUNCTION     0.53     1.78     8.68     0  01:45        1.78
  YS02001607           JUNCTION     0.49     1.65     8.50     0  01:49        1.65
  YS02001610           JUNCTION     0.53     1.68     8.48     0  01:46        1.68
  YS02001613           JUNCTION     0.49     1.67     8.51     0  01:49        1.67
  YS02001616           JUNCTION     0.43     1.61     8.52     0  01:48        1.61
  YS02001619           JUNCTION     0.41     1.61     8.54     0  01:48        1.61
  YS02001622           JUNCTION     0.40     1.58     8.48     0  01:48        1.58
  YS02001625           JUNCTION     0.63     1.78     8.38     0  01:46        1.78
  YS02001629           JUNCTION     0.52     1.85     8.40     0  01:46        1.85
  YS02001633           JUNCTION     0.59     2.08     8.53     0  01:48        2.08
  YS02001641           JUNCTION     0.55     2.10     8.54     0  01:48        2.10
  YS02001644           JUNCTION     0.54     1.92     8.35     0  01:48        1.92
  YS02001647           JUNCTION     0.32     1.82     8.43     0  01:50        1.68
  YS02001649           JUNCTION     0.35     2.01     8.40     0  01:50        1.87
  YS02001652           JUNCTION     0.24     1.95     8.55     0  01:50        1.95
  YS02001655           JUNCTION     0.16     2.02     8.87     0  01:50        2.02
  YS02001658           JUNCTION     0.12     2.06     9.20     0  01:50        2.06
  YS02001661           JUNCTION     0.15     1.40     8.80     0  01:50        1.06
  YS02001664           JUNCTION     0.07     0.62     8.55     0  01:50        0.54
  YS02001745           JUNCTION     0.07     0.90     8.42     0  01:50        0.86
  YS02001748           JUNCTION     0.10     1.91     8.98     0  01:50        1.06
  YS02001751           JUNCTION     0.12     2.02     8.90     0  01:49        1.25
  YS02001754           JUNCTION     0.18     1.92     8.52     0  01:49        1.52
  YS02001757           JUNCTION     0.34     2.04     8.30     0  01:50        1.87
  YS02001759           JUNCTION     0.29     1.99     8.36     0  01:50        1.87
  YS02001762           JUNCTION     0.28     2.00     8.40     0  01:50        1.96
  YS02001765           JUNCTION     0.26     2.00     8.45     0  01:49        2.00
  YS02001767           JUNCTION     0.26     2.03     8.52     0  01:48        1.99
  YS02001770           JUNCTION     0.27     1.95     8.44     0  01:48        1.95
  YS02001774           JUNCTION     0.33     2.03     8.45     0  01:49        2.03
  YS02001779           JUNCTION     0.17     1.68     8.37     0  01:48        1.68
  YS02001783           JUNCTION     0.30     1.33     7.47     0  01:48        1.22
  YS02001784           JUNCTION     0.31     1.20     7.27     0  01:48        1.11
  YS02001786           JUNCTION     0.26     0.92     6.95     0  01:48        0.87
  YS02001788           JUNCTION     0.19     0.62     6.60     0  01:48        0.62
  YS02001790           JUNCTION     0.22     0.72     6.36     0  01:52        0.71
  YS02001791           JUNCTION     0.14     0.44     5.91     0  01:52        0.43
  YS02001793           JUNCTION     0.07     0.24     5.07     0  01:53        0.24
  YS02001882           JUNCTION     0.37     1.77     8.49     0  01:47        1.71
  YS02001884           JUNCTION     0.46     1.85     8.47     0  01:47        1.81
  YS02001887           JUNCTION     0.53     1.88     8.42     0  01:48        1.88
  YS02001890           JUNCTION     0.56     1.81     8.32     0  01:47        1.81
  YS02001895           JUNCTION     0.34     1.63     8.38     0  01:48        1.63
  YS02001898           JUNCTION     0.35     1.65     8.39     0  01:48        1.65
  YS02001901           JUNCTION     0.45     1.75     8.36     0  01:48        1.75
  YS02001904           JUNCTION     0.44     1.69     8.32     0  01:48        1.69
  YS02001907           JUNCTION     0.73     1.96     8.25     0  01:48        1.96
  YS02001910           JUNCTION     0.55     2.02     8.52     0  01:49        2.02
  YS02001915           JUNCTION     0.38     2.00     8.72     0  01:49        2.00
  YS02001918           JUNCTION     0.22     1.81     8.88     0  01:48        1.81
  YS02001920           JUNCTION     0.30     2.14     9.15     0  01:48        1.64
  YS02001923           JUNCTION     0.17     2.03     9.29     0  01:48        1.35
  YS02001926           JUNCTION     0.19     1.90     9.35     0  01:48        1.10
  YS02001929           JUNCTION     0.11     1.78     9.47     0  01:48        1.16
  YS02006553           JUNCTION     0.74     2.01     8.29     0  01:48        2.00
  YS02006556           JUNCTION     0.71     2.03     8.34     0  01:48        1.98
  YS02006558           JUNCTION     0.75     2.08     8.34     0  01:48        2.07
  YS02006561           JUNCTION     0.19     1.06     7.72     0  01:48        0.89
  YS02163301           JUNCTION     0.54     1.97     8.49     0  01:48        1.97
  YS02163601           JUNCTION     0.61     2.08     8.48     0  01:48        2.08
  YS02164001           JUNCTION     0.54     2.10     8.56     0  01:48        2.10
  CC-1                 OUTFALL      0.00     0.00     0.00     0  00:00        0.00
  CC-2                 OUTFALL      0.00     0.00     0.00     0  00:00        0.00
  JK-1                 OUTFALL      0.00     0.00     0.00     0  00:00        0.00
  JK-2                 OUTFALL      0.00     0.00     0.00     0  00:00        0.00
  WSC                  OUTFALL      0.17     0.30     0.97     0  03:01        0.30
  CC-storage           STORAGE      0.37     1.02     6.52     0  02:22        1.02
  JK-storage           STORAGE      0.19     2.99     3.79     0  00:00        0.68
  
  
  *******************
  Node Inflow Summary
  *******************
  
  -------------------------------------------------------------------------------------------------
                                  Maximum  Maximum                  Lateral       Total        Flow
                                  Lateral    Total  Time of Max      Inflow      Inflow     Balance
                                   Inflow   Inflow   Occurrence      Volume      Volume       Error
  Node                 Type           LPS      LPS  days hr:min    10^6 ltr    10^6 ltr     Percent
  -------------------------------------------------------------------------------------------------
  WS02003060           JUNCTION     16.53   552.89     0  02:58       0.471        4.78       0.043
  WS02003066           JUNCTION      0.00   536.27     0  02:58           0        4.31       0.035
  WS02003067           JUNCTION      0.00   536.26     0  02:58           0        4.31       0.095
  WS02003069           JUNCTION      0.32   553.14     0  02:59     0.00912        4.78       0.081
  WS02003072           JUNCTION      0.00   553.07     0  02:59           0        4.78       0.150
  WS02003073           JUNCTION      1.82   554.84     0  03:00      0.0519        4.82       0.115
  WS02004401           JUNCTION      0.00   538.56     0  02:43           0        4.41       0.232
  WS02004402           JUNCTION      0.00   537.48     0  02:46           0         4.4       0.236
  WS02004403           JUNCTION      0.00   537.10     0  02:47           0        4.39       0.230
  WS02004404           JUNCTION      0.16   537.01     0  02:56     0.00462        4.39       0.202
  WS02004405           JUNCTION      0.04   537.00     0  02:56     0.00109        4.38       0.275
  WS02004406           JUNCTION      0.00   536.97     0  02:56           0        4.37       0.480
  WS02004407           JUNCTION      0.00   536.81     0  02:56           0        4.35       0.023
  WS02004409           JUNCTION      0.00   536.70     0  02:56           0        4.35       0.059
  WS02004410           JUNCTION      0.00   536.59     0  02:57           0        4.34       0.102
  WS02004411           JUNCTION      0.00   536.46     0  02:57           0        4.34       0.129
  WS02004412           JUNCTION      0.00   536.37     0  02:57           0        4.33       0.170
  WS02004413           JUNCTION      0.00   536.33     0  02:57           0        4.33       0.317
  WS02006109           JUNCTION      1.23   558.52     0  02:30      0.0351        4.46       0.160
  WS02006110           JUNCTION      0.00   558.62     0  02:30           0        4.45       0.123
  WS02006111           JUNCTION      0.00   563.25     0  02:43           0        4.44       0.020
  WS02006112           JUNCTION      0.00   544.46     0  02:44           0        4.44       0.467
  WS02006113           JUNCTION      0.00   567.58     0  02:42           0        4.45       0.037
  WS02006115           JUNCTION      0.00   550.17     0  02:26           0        4.42       0.159
  WS02006116           JUNCTION      0.00   540.42     0  02:36           0        4.42       0.063
  WS02006228           JUNCTION      0.00   557.99     0  02:30           0        4.43       0.036
  WS02006229           JUNCTION      0.00   557.27     0  02:30           0        4.43       0.142
  WS02006230           JUNCTION     10.28   598.55     0  02:28       0.293        4.43       0.023
  WS02006231           JUNCTION      0.00   593.51     0  01:48           0        4.13      -0.139
  WS02006232           JUNCTION      0.00   592.04     0  01:48           0        4.15       0.365
  WS02006234           JUNCTION      0.00   604.95     0  01:47           0        4.13      -0.536
  WS02006235           JUNCTION      0.00   620.58     0  01:44           0        4.28       0.438
  WS02006238           JUNCTION      0.00   428.46     0  04:13           0        3.15      -0.132
  WS02006239           JUNCTION      0.00   428.77     0  04:13           0        3.07      -0.146
  WS02006240           JUNCTION      0.00   427.66     0  04:13           0           3       0.000
  WS02006242           JUNCTION      0.00   426.98     0  04:13           0        2.97       0.028
  WS02006243           JUNCTION      0.00   426.12     0  04:13           0        2.94      -0.121
  WS02006245           JUNCTION      0.00   424.62     0  04:13           0        2.94       0.349
  WS02006247           JUNCTION      0.00   425.28     0  04:13           0        2.94      -0.032
  WS02006248           JUNCTION      0.00   424.07     0  04:13           0        2.95       0.154
  WS02006249           JUNCTION      0.00   468.65     0  01:42           0        3.19       0.339
  WS02006251           JUNCTION      0.08   405.38     0  03:13     0.00219        3.19      -0.021
  WS02006252           JUNCTION      0.00   400.00     0  00:00           0        3.18      -0.042
  WS02006256           JUNCTION      0.00   318.88     0  02:07           0        1.74      -3.332
  WSF200               JUNCTION      0.00   536.29     0  02:58           0        4.31       0.009
  YS02001580           JUNCTION      0.00   138.62     0  01:46           0     0.00436       0.892
  YS02001583           JUNCTION      0.00   229.44     0  01:46           0      0.0148      -8.673
  YS02001586           JUNCTION    532.25   532.32     0  01:54        1.42        1.43       0.120
  YS02001590           JUNCTION      0.00   317.95     0  01:52           0        1.24      -0.036
  YS02001593           JUNCTION      0.00   318.11     0  01:51           0        1.24       0.024
  YS02001596           JUNCTION      0.00   318.02     0  02:03           0        1.24       0.003
  YS02001600           JUNCTION      0.00   318.03     0  01:51           0        1.24       0.014
  YS02001601           JUNCTION    987.98  1305.68     0  01:52        1.98        3.21       0.029
  YS02001602           JUNCTION      0.00   556.90     0  01:45           0        2.21       0.022
  YS02001605           JUNCTION      0.00   556.87     0  01:45           0        2.13       0.022
  YS02001607           JUNCTION      0.00   557.10     0  01:45           0        2.13       0.099
  YS02001610           JUNCTION      0.00   546.31     0  01:46           0        2.16       0.113
  YS02001613           JUNCTION      0.00   553.27     0  01:46           0        1.84       0.101
  YS02001616           JUNCTION      0.00   560.28     0  01:46           0        1.84       0.031
  YS02001619           JUNCTION    940.88   963.27     0  01:46        2.26        4.07       0.009
  YS02001622           JUNCTION      0.00   944.28     0  02:10           0        4.03      -0.007
  YS02001625           JUNCTION      0.00  1061.94     0  01:53           0        4.07       0.226
  YS02001629           JUNCTION      0.00   944.88     0  02:10           0        3.55       0.004
  YS02001633           JUNCTION    738.02  1449.72     0  01:47        1.44        4.93       0.072
  YS02001641           JUNCTION      0.00  1448.95     0  01:47           0        4.89       0.060
  YS02001644           JUNCTION    660.06  1935.16     0  01:47        1.25        6.13       0.053
  YS02001647           JUNCTION      0.00  1935.82     0  01:47           0        6.06       0.005
  YS02001649           JUNCTION      0.00  2256.73     0  01:48           0         7.2       0.009
  YS02001652           JUNCTION      0.00   807.10     0  01:51           0        1.13      -0.097
  YS02001655           JUNCTION      0.15   807.31     0  01:51     0.00439        1.13       0.086
  YS02001658           JUNCTION      0.00   806.47     0  01:51           0        1.13      -0.041
  YS02001661           JUNCTION      0.00   801.27     0  01:50           0        1.13       0.006
  YS02001664           JUNCTION    640.64   640.64     0  01:51        1.13        1.13      -0.010
  YS02001745           JUNCTION    422.04   576.54     0  01:49       0.689        0.69       0.164
  YS02001748           JUNCTION      0.04   654.19     0  01:50     0.00128       0.693      -0.223
  YS02001751           JUNCTION      0.01   559.94     0  01:50    0.000313         0.7       0.045
  YS02001754           JUNCTION      0.26   560.00     0  01:50     0.00741       0.713      -0.164
  YS02001757           JUNCTION      0.00  3444.52     0  01:50           0        10.3       0.059
  YS02001759           JUNCTION    582.46  1381.19     0  01:50        0.95        2.41      -0.014
  YS02001762           JUNCTION      0.00   809.71     0  01:49           0        1.46      -0.005
  YS02001765           JUNCTION      0.00   813.49     0  01:49           0        1.46      -0.007
  YS02001767           JUNCTION      0.54   813.54     0  01:49      0.0152        1.46      -0.008
  YS02001770           JUNCTION    822.94   822.94     0  01:51        1.45         1.5      -0.025
  YS02001774           JUNCTION      0.00   472.00     0  01:48           0      0.0713       1.355
  YS02001779           JUNCTION      0.01   475.35     0  01:48    0.000142      0.0299      -3.365
  YS02001783           JUNCTION      0.00  1160.01     0  01:49           0        3.79       0.006
  YS02001784           JUNCTION      1.06  1160.50     0  01:49      0.0302        3.82       0.014
  YS02001786           JUNCTION      0.06  1160.75     0  01:49      0.0016        3.82       0.017
  YS02001788           JUNCTION      0.07  1162.79     0  01:49     0.00202        3.82       0.007
  YS02001790           JUNCTION      0.15  1177.04     0  01:49     0.00442        3.83       0.023
  YS02001791           JUNCTION      0.00  1282.08     0  01:52           0        3.83      -0.021
  YS02001793           JUNCTION      0.00  1238.28     0  01:57           0        3.83      -0.011
  YS02001882           JUNCTION      0.00    66.62     0  01:46           0      0.0137       5.173
  YS02001884           JUNCTION      0.00   126.13     0  01:46           0      0.0499       5.451
  YS02001887           JUNCTION    644.05   645.08     0  01:50       0.999        1.03       0.430
  YS02001890           JUNCTION      0.00   644.41     0  01:50           0       0.991       0.525
  YS02001895           JUNCTION      0.00   539.03     0  01:47           0       0.957       0.195
  YS02001898           JUNCTION      0.00   540.56     0  01:47           0       0.956       0.030
  YS02001901           JUNCTION      0.00   542.61     0  01:47           0       0.958       0.365
  YS02001904           JUNCTION      0.00   543.66     0  01:47           0       0.962       0.308
  YS02001907           JUNCTION      0.00  1628.70     0  01:49           0        3.15       0.586
  YS02001910           JUNCTION      0.00  1111.58     0  01:49           0        2.19       0.339
  YS02001915           JUNCTION    718.60  1111.73     0  01:49        1.38        2.24       0.062
  YS02001918           JUNCTION      0.00   577.62     0  01:47           0       0.891       0.034
  YS02001920           JUNCTION      2.87   549.04     0  01:47      0.0818       0.869       0.074
  YS02001923           JUNCTION      0.04   664.75     0  01:47     0.00107       0.771      -0.071
  YS02001926           JUNCTION      0.05   967.37     0  01:48     0.00149        0.75      -0.082
  YS02001929           JUNCTION    344.39   798.98     0  01:48       0.728       0.733      -0.097
  YS02006553           JUNCTION      0.00   794.12     0  02:07           0        2.38       0.493
  YS02006556           JUNCTION      0.00   794.07     0  02:07           0        2.39       0.354
  YS02006558           JUNCTION    841.93  1164.69     0  01:48        1.46        3.82       0.086
  YS02006561           JUNCTION      0.00  1166.60     0  01:48           0        3.79       0.002
  YS02163301           JUNCTION      0.00   946.72     0  02:10           0        3.54       0.051
  YS02163601           JUNCTION      0.11  1448.64     0  01:47     0.00313        4.89       0.104
  YS02164001           JUNCTION      0.00  1448.35     0  01:47           0        4.89       0.047
  CC-1                 OUTFALL       0.00   683.00     0  00:00           0        4.48       0.000
  CC-2                 OUTFALL       0.00   683.00     0  00:00           0        4.48       0.000
  JK-1                 OUTFALL       0.00  1000.00     0  00:00           0        1.13       0.000
  JK-2                 OUTFALL       0.00  1000.00     0  00:00           0        1.13       0.000
  WSC                  OUTFALL       0.00   554.78     0  03:01           0        4.82       0.000
  CC-storage           STORAGE       0.00  3443.48     0  01:50           0        12.5      -0.354
  JK-storage           STORAGE       0.00  1362.71     0  01:53           0        3.98      -0.563
  
  
  **********************
  Node Surcharge Summary
  **********************
  
  Surcharging occurs when water rises above the top of the highest conduit.
  ---------------------------------------------------------------------
                                               Max. Height   Min. Depth
                                   Hours       Above Crown    Below Rim
  Node                 Type      Surcharged         Meters       Meters
  ---------------------------------------------------------------------
  WS02006109           JUNCTION        1.74          0.404        1.416
  WS02006110           JUNCTION        0.55          0.312        1.538
  WS02006112           JUNCTION        1.19          0.102        1.578
  WS02006228           JUNCTION        1.71          0.400        1.800
  WS02006229           JUNCTION        1.75          0.489        1.961
  WS02006230           JUNCTION        0.58          0.410        1.160
  WS02006231           JUNCTION        1.04          1.530        0.000
  WS02006232           JUNCTION        1.85          1.480        0.000
  WS02006234           JUNCTION        1.29          1.240        0.000
  WS02006235           JUNCTION        1.56          1.290        0.000
  WS02006238           JUNCTION        1.71          1.430        0.000
  WS02006239           JUNCTION        1.67          1.290        0.000
  WS02006240           JUNCTION        1.73          1.390        0.000
  WS02006242           JUNCTION        1.89          0.820        0.000
  WS02006243           JUNCTION        1.75          0.770        0.000
  WS02006245           JUNCTION        1.75          0.850        0.000
  WS02006247           JUNCTION        1.78          0.760        0.000
  WS02006248           JUNCTION        1.73          0.380        0.000
  WS02006249           JUNCTION        1.76          0.390        0.000
  WS02006251           JUNCTION        1.32          0.351        0.829
  WS02006252           JUNCTION        2.21          1.100        0.000
  WS02006256           JUNCTION        5.50          2.050        0.000
  YS02001580           JUNCTION        0.53          0.450        0.000
  YS02001583           JUNCTION        0.54          0.500        0.000
  YS02001586           JUNCTION        0.65          0.510        0.000
  YS02001590           JUNCTION        0.73          0.750        0.000
  YS02001593           JUNCTION        0.73          0.840        0.000
  YS02001596           JUNCTION        0.83          1.070        0.000
  YS02001600           JUNCTION        1.00          1.190        0.000
  YS02001601           JUNCTION        1.43          1.440        0.000
  YS02001602           JUNCTION        1.28          1.270        0.000
  YS02001605           JUNCTION        1.22          1.180        0.000
  YS02001607           JUNCTION        0.65          0.651        0.029
  YS02001610           JUNCTION        0.68          0.680        0.000
  YS02001613           JUNCTION        0.64          0.672        0.028
  YS02001616           JUNCTION        0.60          0.609        0.001
  YS02001619           JUNCTION        0.58          0.610        0.000
  YS02001622           JUNCTION        0.57          0.577        0.043
  YS02001625           JUNCTION        0.78          0.780        0.000
  YS02001629           JUNCTION        0.46          0.470        0.000
  YS02001633           JUNCTION        0.78          1.060        0.000
  YS02001641           JUNCTION        0.66          1.100        0.000
  YS02001644           JUNCTION        0.59          0.920        0.000
  YS02001647           JUNCTION        0.35          0.815        0.085
  YS02001649           JUNCTION        0.39          1.012        0.038
  YS02001652           JUNCTION        0.27          0.923        0.207
  YS02001655           JUNCTION        0.18          1.018        0.182
  YS02001658           JUNCTION        0.09          1.059        0.241
  YS02001661           JUNCTION        0.01          0.328        1.062
  YS02001748           JUNCTION        0.01          0.828        0.362
  YS02001751           JUNCTION        0.11          1.018        0.182
  YS02001754           JUNCTION        0.18          0.867        0.283
  YS02001757           JUNCTION        0.38          1.037        0.173
  YS02001759           JUNCTION        0.32          0.993        0.217
  YS02001762           JUNCTION        0.30          1.000        0.150
  YS02001765           JUNCTION        0.28          0.998        0.102
  YS02001767           JUNCTION        0.27          1.030        0.000
  YS02001770           JUNCTION        0.25          0.920        0.000
  YS02001774           JUNCTION        0.31          1.026        0.024
  YS02001779           JUNCTION        0.20          0.680        0.000
  YS02001783           JUNCTION        0.49          0.530        1.070
  YS02001784           JUNCTION        0.47          0.404        1.086
  YS02001786           JUNCTION        0.37          0.118        1.312
  YS02001882           JUNCTION        0.44          0.774        0.056
  YS02001884           JUNCTION        0.45          0.789        0.081
  YS02001887           JUNCTION        0.48          0.827        0.123
  YS02001890           JUNCTION        0.50          0.760        0.000
  YS02001895           JUNCTION        0.43          0.630        0.120
  YS02001898           JUNCTION        0.42          0.622        0.118
  YS02001901           JUNCTION        0.47          0.749        0.121
  YS02001904           JUNCTION        0.46          0.688        0.162
  YS02001907           JUNCTION        0.69          0.950        0.000
  YS02001910           JUNCTION        0.52          1.017        0.083
  YS02001915           JUNCTION        0.44          1.000        0.000
  YS02001918           JUNCTION        0.36          0.810        0.000
  YS02001920           JUNCTION        0.37          1.140        0.000
  YS02001923           JUNCTION        0.01          0.820        0.000
  YS02001926           JUNCTION        0.02          0.900        0.000
  YS02001929           JUNCTION        0.01          0.780        0.000
  YS02006553           JUNCTION        0.70          1.005        0.185
  YS02006556           JUNCTION        0.61          0.986        0.364
  YS02006558           JUNCTION        0.60          0.978        0.422
  YS02006561           JUNCTION        0.32          0.258        0.892
  YS02163301           JUNCTION        0.76          0.974        0.056
  YS02163601           JUNCTION        0.81          1.080        0.000
  YS02164001           JUNCTION        0.68          1.100        0.000
  
  
  *********************
  Node Flooding Summary
  *********************
  
  Flooding refers to all water that overflows a node, whether it ponds or not.
  --------------------------------------------------------------------------
                                                             Total   Maximum
                                 Maximum   Time of Max       Flood    Ponded
                        Hours       Rate    Occurrence      Volume     Depth
  Node                 Flooded       LPS   days hr:min    10^6 ltr    Meters
  --------------------------------------------------------------------------
  WS02006231              0.01     71.31      0  02:24       0.000     0.000
  WS02006232              0.01     45.39      0  01:48       0.000     0.000
  WS02006234              0.01    168.38      0  02:24       0.001     0.000
  WS02006235              0.01     53.29      0  02:28       0.000     0.000
  WS02006238              0.01     41.89      0  02:28       0.000     0.000
  WS02006239              0.01      6.60      0  02:28       0.000     0.000
  WS02006240              0.01      4.34      0  02:25       0.000     0.000
  WS02006242              0.02     31.64      0  02:28       0.001     0.000
  WS02006243              0.01      3.60      0  02:13       0.000     0.000
  WS02006245              0.01      1.70      0  02:25       0.000     0.000
  WS02006247              0.01      1.27      0  02:25       0.000     0.000
  WS02006248              0.14     32.58      0  01:51       0.007     0.000
  WS02006249              1.20     77.91      0  03:11       0.226     0.000
  WS02006252              0.01    245.63      0  00:00       0.000     0.000
  WS02006256              1.61    302.78      0  02:07       0.588     0.000
  YS02001580              0.01     74.31      0  01:46       0.000     0.000
  YS02001583              0.01    120.59      0  01:46       0.000     0.000
  YS02001586              0.41    214.87      0  01:54       0.180     0.000
  YS02001590              0.01      3.78      0  01:46       0.000     0.000
  YS02001593              0.01      0.42      0  01:45       0.000     0.000
  YS02001596              0.01      0.77      0  01:45       0.000     0.000
  YS02001600              0.01      7.05      0  01:46       0.000     0.000
  YS02001601              0.57    907.82      0  01:52       1.002     0.000
  YS02001602              0.40     61.97      0  01:54       0.081     0.000
  YS02001605              0.01      2.76      0  01:46       0.000     0.000
  YS02001610              0.35    436.95      0  01:54       0.357     0.000
  YS02001619              0.01      1.04      0  01:48       0.000     0.000
  YS02001625              0.28   1061.91      0  01:53       0.552     0.000
  YS02001629              0.07    223.16      0  01:46       0.019     0.000
  YS02001633              0.01      5.76      0  01:48       0.000     0.000
  YS02001641              0.01     11.97      0  01:48       0.000     0.000
  YS02001644              0.07    443.42      0  01:51       0.054     0.000
  YS02001767              0.01     97.03      0  01:48       0.000     0.000
  YS02001770              0.01    282.57      0  01:48       0.000     0.000
  YS02001779              0.04    427.13      0  01:48       0.013     0.000
  YS02001890              0.10    127.51      0  01:50       0.029     0.000
  YS02001907              0.30   1290.76      0  01:49       0.753     0.000
  YS02001915              0.01      0.89      0  01:49       0.000     0.000
  YS02001918              0.01    166.12      0  01:48       0.002     0.000
  YS02001920              0.01     37.96      0  01:48       0.000     0.000
  YS02001923              0.01     94.65      0  01:48       0.000     0.000
  YS02001926              0.01    631.83      0  01:48       0.004     0.000
  YS02001929              0.01    484.57      0  01:48       0.002     0.000
  YS02163601              0.01     14.06      0  01:48       0.000     0.000
  YS02164001              0.01     21.70      0  01:48       0.000     0.000
  
  
  **********************
  Storage Volume Summary
  **********************
  
  ------------------------------------------------------------------------------------------------
                         Average    Avg   Evap  Exfil     Maximum    Max    Time of Max    Maximum
                          Volume   Pcnt   Pcnt   Pcnt      Volume   Pcnt     Occurrence    Outflow
  Storage Unit           1000 m³   Full   Loss   Loss     1000 m³   Full    days hr:min        LPS
  ------------------------------------------------------------------------------------------------
  CC-storage               1.030   16.1    0.0    0.0       2.837   44.3       0  02:22    1783.53
  JK-storage               0.010    3.3    0.0    0.0       0.150   51.6       0  00:00    2300.00
  
  
  ***********************
  Outfall Loading Summary
  ***********************
  
  -----------------------------------------------------------
                         Flow       Avg       Max       Total
                         Freq      Flow      Flow      Volume
  Outfall Node           Pcnt       LPS       LPS    10^6 ltr
  -----------------------------------------------------------
  CC-1                  42.40    683.00    683.00       4.480
  CC-2                  42.40    683.00    683.00       4.480
  JK-1                   7.67   1000.00   1000.00       1.128
  JK-2                   7.67   1000.00   1000.00       1.128
  WSC                   99.94    236.30    554.78       4.819
  -----------------------------------------------------------
  System                40.01   3602.30   3903.69      16.036
  
  
  ********************
  Link Flow Summary
  ********************
  
  -----------------------------------------------------------------------------
                                 Maximum  Time of Max   Maximum    Max/    Max/
                                  |Flow|   Occurrence   |Veloc|    Full    Full
  Link                 Type          LPS  days hr:min     m/sec    Flow   Depth
  -----------------------------------------------------------------------------
  1                    CONDUIT    554.78     0  03:01      2.83    0.19    0.30
  WS02003060WS02003069 CONDUIT    552.82     0  02:59      1.64    0.22    0.34
  WS02003066WSF200     CONDUIT    536.29     0  02:58      2.85    0.09    0.22
  WS02003067WS02003066 CONDUIT    536.27     0  02:58      1.21    0.17    0.42
  WS02003069WS02003072 CONDUIT    553.07     0  02:59      1.37    0.27    0.39
  WS02003072WS02003073 CONDUIT    553.02     0  03:00      1.43    1.19    0.37
  WS02004401WS02004402 CONDUIT    537.48     0  02:46      1.22    0.65    0.86
  WS02004402WS02004403 CONDUIT    537.10     0  02:47      1.24    0.77    0.88
  WS02004403WS02004404 CONDUIT    536.84     0  02:56      1.24    0.39    0.93
  WS02004404WS02004405 CONDUIT    536.97     0  02:56      1.45    5.26    0.96
  WS02004405WS02004406 CONDUIT    536.97     0  02:56      1.46    1.06    0.96
  WS02004406WS02004407 CONDUIT    536.81     0  02:56      1.04    0.24    0.63
  WS02004407WS02004409 CONDUIT    536.70     0  02:56      1.59    0.19    0.48
  WS02004409WS02004410 CONDUIT    536.59     0  02:57      1.06    0.69    0.67
  WS02004410WS02004411 CONDUIT    536.46     0  02:57      1.13    0.73    0.69
  WS02004411WS02004412 CONDUIT    536.37     0  02:57      1.20    0.76    0.69
  WS02004412WS02004413 CONDUIT    536.33     0  02:57      1.22    0.36    0.78
  WS02004413WS02003067 CONDUIT    536.26     0  02:58      1.11    0.23    0.59
  WS02006109WS02006110 CONDUIT    558.62     0  02:30      1.11    1.07    1.00
  WS02006110WS02006113 CONDUIT    567.58     0  02:42      1.36    0.52    0.79
  WS02006111WS02006112 CONDUIT    544.46     0  02:44      1.95    0.26    0.67
  WS02006112WS02006115 CONDUIT    550.17     0  02:26      0.86    0.32    0.87
  WS02006113WS02006111 CONDUIT    563.25     0  02:43      2.47    0.68    0.46
  WS02006115WS02006116 CONDUIT    540.42     0  02:36      1.29    0.69    0.76
  WS02006116WS02004401 CONDUIT    538.56     0  02:43      1.21    0.74    0.84
  WS02006228WS02006109 CONDUIT    557.29     0  02:30      1.11    2.43    1.00
  WS02006229WS02006228 CONDUIT    557.99     0  02:30      1.12    1.85    1.00
  WS02006230WS02006229 CONDUIT    557.27     0  02:30      1.45   12.40    1.00
  WS02006231WS02006230 CONDUIT    588.27     0  02:28      1.60    8.92    1.00
  WS02006232WS02006231 CONDUIT    593.51     0  01:48      1.55    1.24    1.00
  WS02006234WS02006232 CONDUIT    592.04     0  01:48      1.54    1.20    1.00
  WS02006235WS02006234 CONDUIT    604.95     0  01:47      1.57    6.38    1.00
  WS02006238WS02006235 CONDUIT    429.96     0  04:13      1.45    0.96    1.00
  WS02006239WS02006238 CONDUIT    428.46     0  04:13      1.11    1.37    1.00
  WS02006240WS02006239 CONDUIT    428.77     0  04:13      1.26    1.35    1.00
  WS02006242WS02006240 CONDUIT    427.66     0  04:13      1.16    1.70    1.00
  WS02006243WS02006242 CONDUIT    426.98     0  04:13      1.40    0.91    1.00
  WS02006245WS02006243 CONDUIT    426.12     0  04:13      1.44    1.26    1.00
  WS02006247WS02006245 CONDUIT    424.62     0  04:13      1.43    3.37    1.00
  WS02006248WS02006247 CONDUIT    425.28     0  04:13      1.43    0.93    1.00
  WS02006249WS02006248 CONDUIT    424.07     0  04:13      1.38    2.32    1.00
  WS02006251WS02006249 CONDUIT    468.65     0  01:42      1.99    1.35    1.00
  WS02006252WS02006251 CONDUIT    405.31     0  03:13      5.58    1.49    1.00
  WS02006256WS02006235 CONDUIT    288.91     0  00:00      4.23    3.06    1.00
  WSF200WS02003060     CONDUIT    536.36     0  02:58      2.06    0.12    0.28
  YS02001580YS02001583 CONDUIT    138.62     0  01:46      0.82    0.54    1.00
  YS02001583YS02001586 CONDUIT    187.47     0  01:46      0.82    0.28    1.00
  YS02001586YS02001590 CONDUIT    317.95     0  01:52      1.27    0.56    1.00
  YS02001590YS02001593 CONDUIT    318.11     0  01:51      1.13    2.00    1.00
  YS02001593YS02001596 CONDUIT    318.02     0  02:03      1.74    0.50    1.00
  YS02001596YS02001600 CONDUIT    318.03     0  01:51      1.21    0.62    1.00
  YS02001600YS02001601 CONDUIT    317.95     0  02:10      1.12    0.55    1.00
  YS02001601YS02001602 CONDUIT    556.90     0  01:45      1.97    2.01    1.00
  YS02001602YS02001605 CONDUIT    556.87     0  01:45      1.97   11.78    1.00
  YS02001605YS02001607 CONDUIT    557.10     0  01:45      1.97    3.05    1.00
  YS02001607YS02001610 CONDUIT    546.31     0  01:46      0.70    0.52    1.00
  YS02001610YS02001613 CONDUIT    553.27     0  01:46      0.70    0.64    1.00
  YS02001613YS02001616 CONDUIT    560.28     0  01:46      0.71    0.48    1.00
  YS02001616YS02001619 CONDUIT    524.79     0  01:46      0.67    0.91    1.00
  YS02001619YS02001622 CONDUIT    944.28     0  02:10      1.24    1.39    1.00
  YS02001622YS02001625 CONDUIT    944.31     0  02:10      1.20    0.50    1.00
  YS02001625YS02001629 CONDUIT    944.88     0  02:10      1.20    0.45    1.00
  YS02001629YS02163301 CONDUIT    946.72     0  02:10      1.21    1.17    1.00
  YS02001633YS02163601 CONDUIT   1448.53     0  01:47      1.84    1.52    1.00
  YS02001641YS02001644 CONDUIT   1450.12     0  01:47      1.85    4.69    1.00
  YS02001644YS02001647 CONDUIT   1935.82     0  01:47      2.48    1.14    1.00
  YS02001647YS02001649 CONDUIT   1936.77     0  01:48      2.47    1.02    1.00
  YS02001649YS02001757 CONDUIT   2254.93     0  01:48      2.87    1.37    1.00
  YS02001652YS02001649 CONDUIT    807.28     0  01:51      1.03    0.40    1.00
  YS02001655YS02001652 CONDUIT    807.10     0  01:51      1.41    0.39    1.00
  YS02001658YS02001655 CONDUIT    807.15     0  01:51      2.00    0.34    1.00
  YS02001661YS02001658 CONDUIT    806.47     0  01:51      2.45    0.32    1.00
  YS02001664YS02001661 CONDUIT    801.27     0  01:50      2.45    0.25    0.81
  YS02001745YS02001748 CONDUIT    654.15     0  01:50      2.36    0.25    0.95
  YS02001748YS02001751 CONDUIT    559.93     0  01:50      1.84    0.28    1.00
  YS02001751YS02001754 CONDUIT    559.74     0  01:50      1.54    0.27    1.00
  YS02001754YS02001757 CONDUIT    560.82     0  01:50      0.71    0.23    1.00
  YS02001757CaochengTiaoxuchi CONDUIT   3443.48     0  01:50      5.89    1.49    0.96
  YS02001759YS02001757 CONDUIT   1378.38     0  01:49      1.75    0.98    1.00
  YS02001762YS02001759 CONDUIT    809.67     0  01:52      1.03    0.93    1.00
  YS02001765YS02001762 CONDUIT    809.71     0  01:49      1.03    0.76    1.00
  YS02001767YS02001765 CONDUIT    813.49     0  01:49      1.04    1.02    1.00
  YS02001770YS02001767 CONDUIT    813.00     0  01:49      1.04    3.22    1.00
  YS02001774YS02001770 CONDUIT    472.00     0  01:48      0.60    0.30    1.00
  YS02001779YS02001774 CONDUIT    475.35     0  01:48      0.62    0.24    1.00
  YS02001783YS02001784 CONDUIT   1159.44     0  01:49      2.31    1.60    1.00
  YS02001784YS02001785 CONDUIT   1160.70     0  01:49      2.31    2.70    1.00
  YS02001786YS02001788 CONDUIT   1162.72     0  01:49      2.48    2.24    0.89
  YS02001788YS02001790 CONDUIT   1176.88     0  01:49      2.73    0.87    0.84
  YS02001790YS02001791 CONDUIT   1282.08     0  01:52      3.42    1.39    0.70
  YS02001791YS02001793 CONDUIT   1238.28     0  01:57      6.79    0.53    0.42
  YS02001793JiankangQianchi CONDUIT   1362.71     0  01:53     14.78    0.11    0.50
  YS02001882YS02001884 CONDUIT     66.62     0  01:46      0.13    0.08    1.00
  YS02001884YS02001887 CONDUIT    126.13     0  01:46      0.16    0.17    1.00
  YS02001887YS02001890 CONDUIT    644.41     0  01:50      0.82    1.10    1.00
  YS02001890YS02001895 CONDUIT    539.03     0  01:47      0.69    0.25    1.00
  YS02001895YS02001898 CONDUIT    540.56     0  01:47      0.69    0.94    1.00
  YS02001898YS02001901 CONDUIT    542.61     0  01:47      0.69    0.35    1.00
  YS02001901YS02001904 CONDUIT    543.66     0  01:47      0.69    0.84    1.00
  YS02001904YS02001907 CONDUIT    544.93     0  01:47      0.69    0.19    1.00
  YS02001907YS02006553 CONDUIT    794.12     0  02:07      0.88    0.93    1.00
  YS02001910YS02001907 CONDUIT   1111.90     0  01:49      1.42    0.63    1.00
  YS02001915YS02001910 CONDUIT   1111.58     0  01:49      1.42    0.55    1.00
  YS02001918YS02001915 CONDUIT    577.62     0  01:47      0.74    0.32    1.00
  YS02001920YS02001918 CONDUIT    546.17     0  01:47      0.70    0.53    1.00
  YS02001923YS02001920 CONDUIT    536.47     0  01:48      0.72    0.24    1.00
  YS02001926YS02001923 CONDUIT    735.18     0  01:48      1.18    1.05    1.00
  YS02001929YS02001926 CONDUIT    530.72     0  01:48      1.20    0.25    1.00
  YS02006553YS02006556 CONDUIT    794.07     0  02:07      1.01    0.68    1.00
  YS02006556YS02006558 CONDUIT    793.95     0  02:07      1.01    0.63    1.00
  YS02006558YS02006561 CONDUIT   1166.60     0  01:48      4.13    2.58    1.00
  YS02006561YS02001783 CONDUIT   1160.01     0  01:49      2.31    0.60    1.00
  YS02163301YS02001633 CONDUIT    946.39     0  02:10      1.20    0.89    1.00
  YS02163601YS02164001 CONDUIT   1448.35     0  01:47      1.84    1.28    1.00
  YS02164001YS02001641 CONDUIT   1448.95     0  01:47      1.84    1.98    1.00
  CC-R1                PUMP       683.00     0  00:00              1.00
  CC-R2                PUMP       683.00     0  00:00              1.00
  CC-S1                PUMP       200.00     0  00:00              1.00
  CC-S2                PUMP       200.00     0  00:00              1.00
  JK-R1                PUMP      1000.00     0  00:00              1.00
  JK-R2                PUMP      1000.00     0  00:00              1.00
  JK-S                 PUMP       300.00     0  00:00              1.00
  
  
  ***************************
  Flow Classification Summary
  ***************************
  
  -------------------------------------------------------------------------------------
                      Adjusted    ---------- Fraction of Time in Flow Class ---------- 
                       /Actual         Up    Down  Sub   Sup   Up    Down  Norm  Inlet 
  Conduit               Length    Dry  Dry   Dry   Crit  Crit  Crit  Crit  Ltd   Ctrl  
  -------------------------------------------------------------------------------------
  1                       1.00   0.00  0.00  0.00  0.00  1.00  0.00  0.00  0.37  0.00
  WS02003060WS02003069    1.00   0.00  0.00  0.00  0.97  0.03  0.00  0.00  0.75  0.00
  WS02003066WSF200        1.00   0.05  0.00  0.00  0.00  0.95  0.00  0.00  0.82  0.00
  WS02003067WS02003066    1.00   0.05  0.00  0.00  0.95  0.00  0.00  0.00  0.00  0.00
  WS02003069WS02003072    1.00   0.00  0.00  0.00  0.99  0.01  0.00  0.00  0.76  0.00
  WS02003072WS02003073    1.00   0.00  0.00  0.00  0.00  0.00  0.00  1.00  0.00  0.00
  WS02004401WS02004402    1.00   0.02  0.00  0.00  0.98  0.00  0.00  0.00  0.00  0.00
  WS02004402WS02004403    1.00   0.02  0.00  0.00  0.98  0.00  0.00  0.00  0.00  0.00
  WS02004403WS02004404    1.00   0.00  0.03  0.00  0.97  0.00  0.00  0.00  0.00  0.00
  WS02004404WS02004405    1.00   0.00  0.00  0.00  1.00  0.00  0.00  0.00  0.01  0.00
  WS02004405WS02004406    1.00   0.00  0.00  0.00  1.00  0.00  0.00  0.00  0.00  0.00
  WS02004406WS02004407    1.00   0.00  0.03  0.00  0.97  0.00  0.00  0.00  0.00  0.00
  WS02004407WS02004409    1.00   0.03  0.00  0.00  0.95  0.01  0.00  0.00  0.95  0.00
  WS02004409WS02004410    1.00   0.03  0.00  0.00  0.96  0.00  0.00  0.00  0.00  0.00
  WS02004410WS02004411    1.00   0.04  0.00  0.00  0.96  0.00  0.00  0.00  0.00  0.00
  WS02004411WS02004412    1.00   0.04  0.00  0.00  0.96  0.00  0.00  0.00  0.00  0.00
  WS02004412WS02004413    1.00   0.04  0.00  0.00  0.96  0.00  0.00  0.00  0.00  0.00
  WS02004413WS02003067    1.00   0.04  0.01  0.00  0.00  0.00  0.95  0.00  0.00  0.00
  WS02006109WS02006110    1.00   0.00  0.01  0.00  0.98  0.00  0.01  0.00  0.00  0.00
  WS02006110WS02006113    1.00   0.01  0.01  0.00  0.98  0.00  0.00  0.00  0.00  0.00
  WS02006111WS02006112    1.00   0.02  0.00  0.00  0.98  0.00  0.00  0.00  0.98  0.00
  WS02006112WS02006115    1.00   0.02  0.00  0.00  0.97  0.00  0.00  0.00  0.00  0.00
  WS02006113WS02006111    1.00   0.02  0.00  0.00  0.00  0.98  0.00  0.00  0.13  0.00
  WS02006115WS02006116    1.00   0.02  0.00  0.00  0.97  0.00  0.00  0.01  0.00  0.00
  WS02006116WS02004401    1.00   0.02  0.00  0.00  0.98  0.00  0.00  0.00  0.00  0.00
  WS02006228WS02006109    1.00   0.00  0.00  0.00  1.00  0.00  0.00  0.00  0.00  0.00
  WS02006229WS02006228    1.00   0.00  0.00  0.00  0.99  0.00  0.00  0.01  0.00  0.00
  WS02006230WS02006229    1.00   0.00  0.00  0.00  0.99  0.00  0.00  0.01  0.02  0.00
  WS02006231WS02006230    1.00   0.00  0.00  0.00  0.25  0.00  0.75  0.00  0.00  0.00
  WS02006232WS02006231    1.00   0.00  0.00  0.00  0.98  0.00  0.02  0.00  0.00  0.00
  WS02006234WS02006232    1.00   0.00  0.00  0.00  1.00  0.00  0.00  0.00  0.07  0.00
  WS02006235WS02006234    1.00   0.00  0.00  0.00  0.91  0.00  0.09  0.00  0.00  0.00
  WS02006238WS02006235    1.00   0.00  0.00  0.00  1.00  0.00  0.00  0.00  0.00  0.00
  WS02006239WS02006238    1.00   0.00  0.00  0.00  1.00  0.00  0.00  0.00  0.27  0.00
  WS02006240WS02006239    1.00   0.00  0.00  0.00  0.61  0.00  0.00  0.39  0.04  0.00
  WS02006242WS02006240    1.00   0.00  0.00  0.00  0.99  0.00  0.00  0.00  0.03  0.00
  WS02006243WS02006242    1.00   0.00  0.00  0.00  0.99  0.00  0.00  0.01  0.64  0.00
  WS02006245WS02006243    1.00   0.00  0.00  0.00  0.50  0.00  0.00  0.50  0.03  0.00
  WS02006247WS02006245    1.00   0.00  0.00  0.00  0.99  0.00  0.00  0.01  0.00  0.00
  WS02006248WS02006247    1.00   0.00  0.00  0.00  0.99  0.00  0.00  0.01  0.19  0.00
  WS02006249WS02006248    1.00   0.00  0.00  0.00  0.33  0.00  0.67  0.00  0.00  0.00
  WS02006251WS02006249    1.00   0.00  0.00  0.00  1.00  0.00  0.00  0.00  0.68  0.00
  WS02006252WS02006251    1.00   0.00  0.72  0.00  0.17  0.00  0.11  0.00  0.09  0.00
  WS02006256WS02006235    1.00   0.00  0.00  0.00  0.98  0.02  0.00  0.00  0.00  0.00
  WSF200WS02003060        1.00   0.00  0.05  0.00  0.45  0.51  0.00  0.00  0.68  0.00
  YS02001580YS02001583    1.00   0.22  0.60  0.00  0.18  0.00  0.00  0.00  0.69  0.00
  YS02001583YS02001586    1.00   0.42  0.34  0.00  0.24  0.00  0.00  0.00  0.69  0.00
  YS02001586YS02001590    1.00   0.13  0.00  0.00  0.42  0.04  0.00  0.41  0.36  0.00
  YS02001590YS02001593    1.00   0.13  0.01  0.00  0.11  0.00  0.76  0.00  0.00  0.00
  YS02001593YS02001596    1.00   0.14  0.00  0.00  0.12  0.01  0.00  0.73  0.02  0.00
  YS02001596YS02001600    1.00   0.14  0.00  0.00  0.20  0.01  0.00  0.65  0.05  0.00
  YS02001600YS02001601    1.00   0.13  0.01  0.00  0.86  0.00  0.00  0.00  0.61  0.00
  YS02001601YS02001602    1.00   0.13  0.01  0.00  0.86  0.00  0.00  0.00  0.00  0.00
  YS02001602YS02001605    1.00   0.14  0.00  0.00  0.86  0.00  0.00  0.00  0.00  0.00
  YS02001605YS02001607    1.00   0.14  0.00  0.00  0.86  0.00  0.00  0.00  0.00  0.00
  YS02001607YS02001610    1.00   0.13  0.01  0.00  0.86  0.00  0.00  0.00  0.01  0.00
  YS02001610YS02001613    1.00   0.13  0.00  0.00  0.87  0.00  0.00  0.00  0.00  0.00
  YS02001613YS02001616    1.00   0.13  0.00  0.00  0.87  0.00  0.00  0.00  0.00  0.00
  YS02001616YS02001619    1.00   0.13  0.00  0.00  0.87  0.00  0.00  0.00  0.00  0.00
  YS02001619YS02001622    1.00   0.13  0.00  0.00  0.87  0.00  0.00  0.00  0.29  0.00
  YS02001622YS02001625    1.00   0.13  0.00  0.00  0.87  0.00  0.00  0.00  0.04  0.00
  YS02001625YS02001629    1.00   0.13  0.05  0.00  0.15  0.00  0.67  0.00  0.00  0.00
  YS02001629YS02163301    1.00   0.16  0.01  0.00  0.83  0.00  0.00  0.00  0.00  0.00
  YS02001633YS02163601    1.00   0.00  0.01  0.00  0.99  0.00  0.00  0.00  0.15  0.00
  YS02001641YS02001644    1.00   0.00  0.01  0.00  0.99  0.00  0.00  0.00  0.00  0.00
  YS02001644YS02001647    1.00   0.00  0.17  0.00  0.83  0.00  0.00  0.00  0.00  0.00
  YS02001647YS02001649    1.00   0.00  0.17  0.00  0.49  0.34  0.00  0.00  0.57  0.00
  YS02001649YS02001757    1.00   0.00  0.00  0.00  0.62  0.38  0.00  0.00  0.55  0.00
  YS02001652YS02001649    1.00   0.00  0.00  0.00  0.97  0.03  0.00  0.00  0.74  0.00
  YS02001655YS02001652    1.00   0.00  0.00  0.00  0.18  0.01  0.00  0.81  0.10  0.00
  YS02001658YS02001655    1.00   0.00  0.14  0.00  0.59  0.26  0.00  0.00  0.73  0.00
  YS02001661YS02001658    1.00   0.14  0.00  0.00  0.44  0.42  0.00  0.00  0.74  0.00
  YS02001664YS02001661    1.00   0.13  0.00  0.00  0.73  0.14  0.00  0.00  0.86  0.00
  YS02001745YS02001748    1.00   0.00  0.00  0.00  0.03  0.01  0.00  0.96  0.02  0.00
  YS02001748YS02001751    1.00   0.00  0.00  0.00  0.75  0.25  0.00  0.00  0.83  0.00
  YS02001751YS02001754    1.00   0.00  0.00  0.00  0.10  0.01  0.00  0.89  0.05  0.00
  YS02001754YS02001757    1.00   0.00  0.00  0.00  1.00  0.00  0.00  0.00  0.87  0.00
  YS02001757CaochengTiaoxuchi    1.00   0.00  0.00  0.00  0.76  0.24  0.00  0.00  0.82  0.00
  YS02001759YS02001757    1.00   0.00  0.00  0.00  1.00  0.00  0.00  0.00  0.63  0.00
  YS02001762YS02001759    1.00   0.00  0.00  0.00  1.00  0.00  0.00  0.00  0.04  0.00
  YS02001765YS02001762    1.00   0.00  0.00  0.00  1.00  0.00  0.00  0.00  0.73  0.00
  YS02001767YS02001765    1.00   0.00  0.00  0.00  1.00  0.00  0.00  0.00  0.00  0.00
  YS02001770YS02001767    1.00   0.00  0.00  0.00  1.00  0.00  0.00  0.00  0.00  0.00
  YS02001774YS02001770    1.00   0.00  0.13  0.00  0.70  0.00  0.16  0.00  0.03  0.00
  YS02001779YS02001774    1.00   0.00  0.00  0.00  1.00  0.00  0.00  0.00  0.79  0.00
  YS02001783YS02001784    1.00   0.00  0.18  0.00  0.82  0.00  0.00  0.00  0.55  0.00
  YS02001784YS02001785    1.00   0.00  0.00  0.00  1.00  0.00  0.00  0.00  0.17  0.00
  YS02001786YS02001788    1.00   0.00  0.00  0.00  0.79  0.21  0.00  0.00  0.00  0.00
  YS02001788YS02001790    1.00   0.00  0.00  0.00  0.20  0.80  0.00  0.00  0.81  0.00
  YS02001790YS02001791    1.00   0.00  0.00  0.00  0.01  0.99  0.00  0.00  0.16  0.00
  YS02001791YS02001793    1.00   0.00  0.00  0.00  0.00  1.00  0.00  0.00  0.00  0.00
  YS02001793JiankangQianchi    1.00   0.00  0.00  0.00  0.64  0.36  0.00  0.00  0.95  0.00
  YS02001882YS02001884    1.00   0.15  0.01  0.00  0.84  0.00  0.00  0.00  0.00  0.00
  YS02001884YS02001887    1.00   0.06  0.05  0.00  0.89  0.00  0.00  0.00  0.00  0.00
  YS02001887YS02001890    1.00   0.00  0.00  0.00  0.97  0.00  0.03  0.00  0.00  0.00
  YS02001890YS02001895    1.00   0.00  0.16  0.00  0.83  0.00  0.00  0.00  0.00  0.00
  YS02001895YS02001898    1.00   0.17  0.00  0.00  0.81  0.00  0.02  0.00  0.00  0.00
  YS02001898YS02001901    1.00   0.17  0.00  0.00  0.83  0.00  0.00  0.00  0.01  0.00
  YS02001901YS02001904    1.00   0.17  0.00  0.00  0.83  0.00  0.00  0.00  0.00  0.00
  YS02001904YS02001907    1.00   0.00  0.16  0.00  0.83  0.00  0.00  0.00  0.00  0.00
  YS02001907YS02006553    1.00   0.00  0.02  0.00  0.98  0.00  0.00  0.00  0.00  0.00
  YS02001910YS02001907    1.00   0.00  0.00  0.00  0.97  0.00  0.00  0.03  0.12  0.00
  YS02001915YS02001910    1.00   0.00  0.00  0.00  0.96  0.04  0.00  0.00  0.16  0.00
  YS02001918YS02001915    1.00   0.00  0.01  0.00  0.98  0.02  0.00  0.00  0.75  0.00
  YS02001920YS02001918    1.00   0.00  0.01  0.00  0.99  0.00  0.00  0.00  0.00  0.00
  YS02001923YS02001920    1.00   0.00  0.00  0.00  1.00  0.00  0.00  0.00  0.93  0.00
  YS02001926YS02001923    1.00   0.00  0.07  0.00  0.06  0.00  0.87  0.00  0.00  0.00
  YS02001929YS02001926    1.00   0.00  0.13  0.00  0.87  0.00  0.00  0.00  0.82  0.00
  YS02006553YS02006556    1.00   0.01  0.00  0.00  0.99  0.00  0.00  0.00  0.03  0.00
  YS02006556YS02006558    1.00   0.00  0.00  0.00  1.00  0.00  0.00  0.00  0.00  0.00
  YS02006558YS02006561    1.00   0.18  0.00  0.00  0.05  0.77  0.00  0.00  0.19  0.00
  YS02006561YS02001783    1.00   0.18  0.00  0.00  0.08  0.74  0.00  0.00  0.69  0.00
  YS02163301YS02001633    1.00   0.00  0.15  0.00  0.85  0.00  0.00  0.00  0.00  0.00
  YS02163601YS02164001    1.00   0.00  0.08  0.00  0.92  0.00  0.00  0.00  0.00  0.00
  YS02164001YS02001641    1.00   0.01  0.08  0.00  0.92  0.00  0.00  0.00  0.06  0.00
  
  
  *************************
  Conduit Surcharge Summary
  *************************
  
  ----------------------------------------------------------------------------
                                                           Hours        Hours 
                         --------- Hours Full --------   Above Full   Capacity
  Conduit                Both Ends  Upstream  Dnstream   Normal Flow   Limited
  ----------------------------------------------------------------------------
  WS02003072WS02003073        0.01      0.01      0.01      1.39         0.01
  WS02004404WS02004405        0.01      0.01      0.01      2.79         0.01
  WS02004405WS02004406        0.01      0.01      0.01      1.04         0.01
  WS02006109WS02006110        0.54      0.54      1.83      0.79         0.01
  WS02006110WS02006113        0.01      0.01      1.80      0.01         0.01
  WS02006111WS02006112        0.01      0.01      1.93      0.01         0.01
  WS02006112WS02006115        0.01      0.01      1.19      0.01         0.01
  WS02006228WS02006109        1.74      1.83      1.74      2.22         1.74
  WS02006229WS02006228        1.71      1.75      1.71      2.07         1.69
  WS02006230WS02006229        1.95      2.01      1.95      3.31         1.95
  WS02006231WS02006230        0.58      0.58      1.22      2.90         0.01
  WS02006232WS02006231        1.04      1.04      1.85      1.11         0.01
  WS02006234WS02006232        1.54      1.54      1.85      1.07         0.98
  WS02006235WS02006234        1.25      1.29      1.55      2.71         0.09
  WS02006238WS02006235        1.61      1.61      1.87      0.01         0.05
  WS02006239WS02006238        1.70      1.84      1.70      2.02         1.40
  WS02006240WS02006239        1.67      1.75      1.67      2.01         1.30
  WS02006242WS02006240        1.73      1.73      1.95      2.12         0.02
  WS02006243WS02006242        1.77      1.77      1.89      0.01         0.22
  WS02006245WS02006243        1.75      1.76      1.75      1.57         0.93
  WS02006247WS02006245        1.75      1.80      1.75      2.21         1.64
  WS02006248WS02006247        1.74      1.74      1.78      0.01         0.25
  WS02006249WS02006248        1.72      1.72      1.76      2.20         0.01
  WS02006251WS02006249        1.75      1.77      1.76      2.16         1.60
  WS02006252WS02006251        2.21      2.21      2.21      2.21         0.01
  WS02006256WS02006235        2.57      2.77      5.33      1.65         0.02
  YS02001580YS02001583        0.53      0.53      0.57      0.01         0.01
  YS02001583YS02001586        0.54      0.54      0.65      0.01         0.01
  YS02001586YS02001590        0.66      0.66      0.73      0.01         0.01
  YS02001590YS02001593        0.73      0.73      0.74      0.79         0.01
  YS02001593YS02001596        0.74      0.74      0.83      0.01         0.01
  YS02001596YS02001600        0.88      0.88      1.00      0.01         0.01
  YS02001600YS02001601        1.07      1.07      1.43      0.01         0.01
  YS02001601YS02001602        1.28      1.28      1.47      1.02         0.01
  YS02001602YS02001605        1.22      1.22      1.28      2.18         0.01
  YS02001605YS02001607        1.16      1.22      1.16      1.38         1.16
  YS02001607YS02001610        0.65      0.65      0.68      0.01         0.01
  YS02001610YS02001613        0.64      0.64      0.68      0.01         0.01
  YS02001613YS02001616        0.60      0.60      0.64      0.01         0.01
  YS02001616YS02001619        0.58      0.58      0.60      0.01         0.01
  YS02001619YS02001622        0.57      0.58      0.57      0.78         0.55
  YS02001622YS02001625        0.57      0.57      0.78      0.01         0.01
  YS02001625YS02001629        0.46      0.46      0.78      0.01         0.01
  YS02001629YS02163301        0.75      0.75      0.76      0.36         0.34
  YS02001633YS02163601        0.78      0.78      0.81      0.51         0.50
  YS02001641YS02001644        0.59      0.66      0.59      1.50         0.59
  YS02001644YS02001647        0.35      0.35      0.59      0.04         0.01
  YS02001647YS02001649        0.35      0.35      0.39      0.01         0.01
  YS02001649YS02001757        0.38      0.39      0.38      0.44         0.34
  YS02001652YS02001649        0.28      0.28      0.39      0.01         0.01
  YS02001655YS02001652        0.18      0.18      0.27      0.01         0.01
  YS02001658YS02001655        0.09      0.09      0.18      0.01         0.01
  YS02001661YS02001658        0.01      0.01      0.09      0.01         0.01
  YS02001664YS02001661        0.01      0.01      0.02      0.01         0.01
  YS02001745YS02001748        0.01      0.01      0.01      0.01         0.01
  YS02001748YS02001751        0.05      0.05      0.11      0.01         0.01
  YS02001751YS02001754        0.11      0.11      0.18      0.01         0.01
  YS02001754YS02001757        0.20      0.20      0.38      0.01         0.01
  YS02001757CaochengTiaoxuchi        0.01      0.38      0.19      0.47         0.01
  YS02001759YS02001757        0.32      0.32      0.38      0.01         0.02
  YS02001762YS02001759        0.30      0.30      0.32      0.01         0.03
  YS02001765YS02001762        0.28      0.28      0.30      0.01         0.01
  YS02001767YS02001765        0.27      0.27      0.28      0.01         0.04
  YS02001770YS02001767        0.27      0.27      0.27      0.55         0.26
  YS02001774YS02001770        0.25      0.25      0.31      0.01         0.01
  YS02001779YS02001774        0.20      0.20      0.31      0.01         0.01
  YS02001783YS02001784        0.47      0.49      0.47      0.63         0.47
  YS02001784YS02001785        0.37      0.47      0.37      0.86         0.37
  YS02001786YS02001788        0.01      0.37      0.01      0.73         0.01
  YS02001790YS02001791        0.01      0.01      0.01      0.46         0.01
  YS02001882YS02001884        0.44      0.44      0.45      0.01         0.01
  YS02001884YS02001887        0.47      0.47      0.48      0.01         0.01
  YS02001887YS02001890        0.50      0.50      0.51      0.06         0.01
  YS02001890YS02001895        0.43      0.43      0.52      0.01         0.01
  YS02001895YS02001898        0.42      0.42      0.43      0.01         0.01
  YS02001898YS02001901        0.43      0.43      0.47      0.01         0.01
  YS02001901YS02001904        0.46      0.46      0.47      0.01         0.01
  YS02001904YS02001907        0.46      0.46      0.71      0.01         0.01
  YS02001907YS02006553        0.87      0.87      0.94      0.01         0.01
  YS02001910YS02001907        0.52      0.52      0.69      0.01         0.01
  YS02001915YS02001910        0.44      0.44      0.52      0.01         0.01
  YS02001918YS02001915        0.36      0.36      0.44      0.01         0.01
  YS02001920YS02001918        0.35      0.36      0.37      0.01         0.01
  YS02001923YS02001920        0.31      0.31      0.37      0.01         0.01
  YS02001926YS02001923        0.01      0.01      0.02      0.01         0.01
  YS02001929YS02001926        0.01      0.01      0.02      0.01         0.01
  YS02006553YS02006556        0.61      0.61      0.70      0.01         0.01
  YS02006556YS02006558        0.66      0.66      0.72      0.01         0.01
  YS02006558YS02006561        0.39      0.60      0.39      0.81         0.39
  YS02006561YS02001783        0.32      0.32      0.49      0.01         0.01
  YS02163301YS02001633        0.76      0.76      0.80      0.01         0.02
  YS02163601YS02164001        0.68      0.68      0.81      0.30         0.01
  YS02164001YS02001641        0.66      0.68      0.66      0.77         0.56
  
  
  ***************
  Pumping Summary
  ***************
  
  ---------------------------------------------------------------------------------------------------------
                                                  Min       Avg       Max     Total     Power    % Time Off
                        Percent   Number of      Flow      Flow      Flow    Volume     Usage    Pump Curve
  Pump                 Utilized   Start-Ups       LPS       LPS       LPS  10^6 ltr     Kw-hr    Low   High
  ---------------------------------------------------------------------------------------------------------
  CC-R1                   23.01           2      0.00    683.00    683.00     4.479     75.06    0.0   89.3
  CC-R2                   23.01           2      0.00    683.00    683.00     4.479     75.06    0.0   89.3
  CC-S1                   27.93           3      0.00    200.00    200.00     1.592     12.15    0.0   28.5
  CC-S2                   27.93           3      0.00    200.00    200.00     1.592     12.15    0.0   28.5
  JK-R1                    4.00          52      0.00   1000.00   1000.00     1.139      3.64    0.0    0.0
  JK-R2                    4.00          52      0.00   1000.00   1000.00     1.139      3.64    0.0    0.0
  JK-S                    20.32          87      0.00    300.00    300.00     1.737     38.68    0.0    0.0
  

  Analysis begun on:  Tue Apr 22 10:17:00 2025
  Analysis ended on:  Tue Apr 22 10:17:02 2025
  Total elapsed time: 00:00:02