
  EPA STORM WATER MANAGEMENT MODEL - VERSION 5.2 (Build 5.2.4)
  PYSWMM TOOLKIT API - VERSION v1.0 (2023-11-27)
  ------------------------------------------------------------

  WARNING 04: minimum elevation drop used for Conduit WS02004404WS02004405
  WARNING 03: negative offset ignored for Link YS02001904YS02001907
  
  ****************
  Analysis Options
  ****************
  Flow Units ............... LPS
  Process Models:
    Rainfall/Runoff ........ YES
    RDII ................... NO
    Snowmelt ............... NO
    Groundwater ............ NO
    Flow Routing ........... YES
    Ponding Allowed ........ NO
    Water Quality .......... NO
  Infiltration Method ...... HORTON
  Flow Routing Method ...... DYNWAVE
  Surcharge Method ......... EXTRAN
  Starting Date ............ 08/28/2015 08:00:00
  Ending Date .............. 08/28/2015 16:00:00
  Antecedent Dry Days ...... 8.0
  Report Time Step ......... 00:01:00
  Wet Time Step ............ 00:01:00
  Dry Time Step ............ 00:01:00
  Routing Time Step ........ 30.00 sec
  Variable Time Step ....... YES
  Maximum Trials ........... 8
  Number of Threads ........ 4
  Head Tolerance ........... 0.001500 m
  
  
  **************************        Volume         Depth
  Runoff Quantity Continuity     hectare-m            mm
  **************************     ---------       -------
  Total Precipitation ......         2.631        79.310
  Evaporation Loss .........         0.000         0.000
  Infiltration Loss ........         0.103         3.101
  Surface Runoff ...........         2.495        75.229
  Final Storage ............         0.033         0.998
  Continuity Error (%) .....        -0.022
  
  
  **************************        Volume        Volume
  Flow Routing Continuity        hectare-m      10^6 ltr
  **************************     ---------     ---------
  Dry Weather Inflow .......         0.025         0.248
  Wet Weather Inflow .......         2.495        24.950
  Groundwater Inflow .......         0.000         0.000
  RDII Inflow ..............         0.000         0.000
  External Inflow ..........         0.083         0.825
  External Outflow .........         1.853        18.528
  Flooding Loss ............         0.897         8.975
  Evaporation Loss .........         0.000         0.000
  Exfiltration Loss ........         0.000         0.000
  Initial Stored Volume ....         0.243         2.431
  Final Stored Volume ......         0.104         1.043
  Continuity Error (%) .....        -0.324
  
  
  *************************
  Highest Continuity Errors
  *************************
  Node YS02001884 (5.40%)
  Node YS02001583 (-3.85%)
  Node WS02006256 (-3.60%)
  
  
  ***************************
  Time-Step Critical Elements
  ***************************
  Link WS02004404WS02004405 (28.87%)
  Link WS02006238WS02006235 (24.26%)
  Link WS02003066WSF200 (9.21%)
  Link YS02001791YS02001793 (8.11%)
  Link YS02006556YS02006558 (5.50%)
  
  
  ********************************
  Highest Flow Instability Indexes
  ********************************
  Link WS02006113WS02006111 (36)
  Link WS02006252WS02006251 (31)
  Link WS02004404WS02004405 (25)
  Link WS02006238WS02006235 (24)
  Link WS02004403WS02004404 (23)
  
  
  *********************************
  Most Frequent Nonconverging Nodes
  *********************************
  Node CC-1 (37.16%)
  Node CC-2 (37.16%)
  Node JK-1 (37.16%)
  Node JK-2 (37.16%)
  Node WSC (37.16%)
  
  
  *************************
  Routing Time Step Summary
  *************************
  Minimum Time Step           :     0.01 sec
  Average Time Step           :     3.03 sec
  Maximum Time Step           :     6.43 sec
  % of Time in Steady State   :     0.00
  Average Iterations per Step :     4.59
  % of Steps Not Converging   :    37.16
  Time Step Frequencies       :
     30.000 - 13.228 sec      :     0.00 %
     13.228 -  5.833 sec      :    18.03 %
      5.833 -  2.572 sec      :    29.51 %
      2.572 -  1.134 sec      :    35.58 %
      1.134 -  0.500 sec      :    16.88 %
  
  
  ***************************
  Subcatchment Runoff Summary
  ***************************
  
  ------------------------------------------------------------------------------------------------------------------------------
                            Total      Total      Total      Total     Imperv       Perv      Total       Total     Peak  Runoff
                           Precip      Runon       Evap      Infil     Runoff     Runoff     Runoff      Runoff   Runoff   Coeff
  Subcatchment                 mm         mm         mm         mm         mm         mm         mm    10^6 ltr      LPS
  ------------------------------------------------------------------------------------------------------------------------------
  sub60                     79.31       0.00       0.00       1.85      68.59       7.67      76.27        1.00   707.10   0.962
  sub61                     79.31       0.00       0.00       2.68      64.70      10.81      75.51        1.39   983.98   0.952
  sub62                     79.31       0.00       0.00       1.23      71.68       5.12      76.80        2.10  1379.24   0.968
  sub63                     79.31       0.00       0.00       4.96      55.34      18.04      73.38        1.67  1121.13   0.925
  sub64                     79.31       0.00       0.00       2.51      66.21       9.39      75.60        1.82  1142.84   0.953
  sub65                     79.31       0.00       0.00       2.17      67.75       8.14      75.89        2.09  1281.63   0.957
  sub66                     79.31       0.00       0.00       6.19      55.23      16.81      72.04        3.36  1724.32   0.908
  sub67                     79.31       0.00       0.00       1.18      71.73       5.17      76.89        1.43  1056.64   0.970
  sub68                     79.31       0.00       0.00       2.22      67.02       8.89      75.91        2.09  1418.98   0.957
  sub69                     79.31       0.00       0.00       2.00      67.30       9.90      77.20        2.86  1703.59   0.973
  sub70                     79.31       0.00       0.00       6.73      52.18      20.23      72.41        2.09   970.72   0.913
  sub71                     79.31       0.00       0.00       1.26      71.64       5.08      76.72        2.01  1234.30   0.967
  sub72                     79.31       0.00       0.00       1.13      72.35       4.43      76.78        1.06   603.17   0.968
  
  
  ******************
  Node Depth Summary
  ******************
  
  ---------------------------------------------------------------------------------
                                 Average  Maximum  Maximum  Time of Max    Reported
                                   Depth    Depth      HGL   Occurrence   Max Depth
  Node                 Type       Meters   Meters   Meters  days hr:min      Meters
  ---------------------------------------------------------------------------------
  WS02003060           JUNCTION     0.23     0.38     5.32     0  03:13        0.38
  WS02003066           JUNCTION     0.19     0.30     5.85     0  03:12        0.30
  WS02003067           JUNCTION     0.48     0.70     6.02     0  03:12        0.70
  WS02003069           JUNCTION     0.26     0.43     5.01     0  03:13        0.43
  WS02003072           JUNCTION     0.32     0.50     4.87     0  03:14        0.50
  WS02003073           JUNCTION     0.18     0.30     4.36     0  03:15        0.30
  WS02004401           JUNCTION     0.60     0.88     6.88     0  03:08        0.87
  WS02004402           JUNCTION     0.63     0.90     6.86     0  03:08        0.90
  WS02004403           JUNCTION     0.65     0.92     6.85     0  03:11        0.92
  WS02004404           JUNCTION     0.72     1.02     6.87     0  03:10        0.99
  WS02004405           JUNCTION     0.70     0.96     6.81     0  03:10        0.96
  WS02004406           JUNCTION     0.71     0.96     6.79     0  03:11        0.96
  WS02004407           JUNCTION     0.17     0.30     6.61     0  03:11        0.30
  WS02004409           JUNCTION     0.39     0.67     6.44     0  03:11        0.67
  WS02004410           JUNCTION     0.41     0.68     6.40     0  03:11        0.68
  WS02004411           JUNCTION     0.43     0.69     6.37     0  03:12        0.69
  WS02004412           JUNCTION     0.45     0.70     6.34     0  03:12        0.70
  WS02004413           JUNCTION     0.60     0.86     6.33     0  03:12        0.86
  WS02006109           JUNCTION     0.67     1.74     8.36     0  02:45        1.08
  WS02006110           JUNCTION     0.67     1.98     8.56     0  02:45        1.06
  WS02006111           JUNCTION     0.18     0.29     6.99     0  03:03        0.29
  WS02006112           JUNCTION     0.76     1.11     7.00     0  02:45        1.07
  WS02006113           JUNCTION     0.28     0.46     7.35     0  02:45        0.45
  WS02006115           JUNCTION     0.49     0.77     6.91     0  03:09        0.77
  WS02006116           JUNCTION     0.57     0.85     6.89     0  03:09        0.85
  WS02006228           JUNCTION     0.67     1.50     8.15     0  02:46        1.09
  WS02006229           JUNCTION     0.65     1.58     8.27     0  02:46        1.55
  WS02006230           JUNCTION     0.67     1.90     8.65     0  02:46        1.23
  WS02006231           JUNCTION     0.46     1.97     9.09     0  02:49        1.88
  WS02006232           JUNCTION     0.60     2.18     9.22     0  02:20        2.18
  WS02006234           JUNCTION     0.54     1.96     9.12     0  01:55        1.96
  WS02006235           JUNCTION     0.58     2.00     9.16     0  01:57        2.00
  WS02006238           JUNCTION     0.61     2.15     9.29     0  02:03        2.15
  WS02006239           JUNCTION     0.57     2.03     9.24     0  02:03        2.03
  WS02006240           JUNCTION     0.55     2.10     9.39     0  02:45        2.10
  WS02006242           JUNCTION     0.61     1.55     8.82     0  01:51        1.55
  WS02006243           JUNCTION     0.54     1.48     8.90     0  02:24        1.48
  WS02006245           JUNCTION     0.54     1.56     9.04     0  02:31        1.56
  WS02006247           JUNCTION     0.56     1.47     8.97     0  02:31        1.47
  WS02006248           JUNCTION     0.53     1.10     8.69     0  01:46        1.10
  WS02006249           JUNCTION     0.56     1.09     8.69     0  01:46        1.09
  WS02006251           JUNCTION     0.56     1.52     9.19     0  01:46        1.40
  WS02006252           JUNCTION     0.36     1.50     9.74     0  00:00        0.94
  WS02006256           JUNCTION     1.18     2.35     9.28     0  00:00        2.35
  WSF200               JUNCTION     0.16     0.29     5.52     0  03:12        0.29
  YS02001580           JUNCTION     0.17     1.05     9.59     0  01:59        0.78
  YS02001583           JUNCTION     0.20     1.02     9.51     0  01:59        0.88
  YS02001586           JUNCTION     0.32     1.13     9.30     0  01:59        1.13
  YS02001590           JUNCTION     0.43     1.40     9.26     0  01:59        1.38
  YS02001593           JUNCTION     0.36     1.44     9.31     0  02:45        1.28
  YS02001596           JUNCTION     0.50     1.78     9.20     0  02:45        1.66
  YS02001600           JUNCTION     0.59     1.87     9.00     0  01:59        1.87
  YS02001601           JUNCTION     0.78     2.06     8.90     0  01:58        2.06
  YS02001602           JUNCTION     0.67     1.87     8.77     0  02:02        1.87
  YS02001605           JUNCTION     0.62     1.78     8.68     0  02:13        1.78
  YS02001607           JUNCTION     0.57     1.68     8.52     0  02:20        1.68
  YS02001610           JUNCTION     0.61     1.68     8.48     0  02:03        1.68
  YS02001613           JUNCTION     0.57     1.68     8.52     0  02:20        1.67
  YS02001616           JUNCTION     0.51     1.61     8.52     0  02:11        1.61
  YS02001619           JUNCTION     0.49     1.61     8.54     0  02:11        1.61
  YS02001622           JUNCTION     0.48     1.59     8.50     0  02:13        1.59
  YS02001625           JUNCTION     0.71     1.78     8.38     0  02:04        1.78
  YS02001629           JUNCTION     0.61     1.85     8.40     0  02:06        1.85
  YS02001633           JUNCTION     0.68     2.08     8.53     0  02:13        2.08
  YS02001641           JUNCTION     0.64     1.98     8.41     0  02:20        1.95
  YS02001644           JUNCTION     0.62     1.92     8.35     0  02:07        1.92
  YS02001647           JUNCTION     0.40     1.76     8.37     0  02:11        1.75
  YS02001649           JUNCTION     0.45     1.98     8.37     0  02:10        1.98
  YS02001652           JUNCTION     0.33     2.04     8.64     0  02:20        2.04
  YS02001655           JUNCTION     0.24     1.66     8.51     0  02:12        1.65
  YS02001658           JUNCTION     0.18     1.44     8.58     0  02:12        1.42
  YS02001661           JUNCTION     0.19     1.24     8.65     0  02:10        1.23
  YS02001664           JUNCTION     0.09     0.72     8.64     0  02:12        0.71
  YS02001745           JUNCTION     0.10     0.88     8.39     0  02:12        0.86
  YS02001748           JUNCTION     0.16     1.67     8.75     0  02:08        1.28
  YS02001751           JUNCTION     0.19     1.78     8.66     0  02:08        1.47
  YS02001754           JUNCTION     0.27     1.85     8.46     0  02:08        1.70
  YS02001757           JUNCTION     0.45     2.03     8.29     0  02:12        2.03
  YS02001759           JUNCTION     0.39     2.06     8.42     0  02:13        2.06
  YS02001762           JUNCTION     0.38     2.02     8.42     0  02:12        2.02
  YS02001765           JUNCTION     0.36     1.98     8.43     0  02:13        1.98
  YS02001767           JUNCTION     0.36     1.95     8.44     0  02:13        1.95
  YS02001770           JUNCTION     0.37     1.95     8.44     0  02:08        1.95
  YS02001774           JUNCTION     0.43     2.00     8.43     0  02:13        2.00
  YS02001779           JUNCTION     0.26     1.68     8.37     0  02:05        1.68
  YS02001783           JUNCTION     0.35     1.29     7.43     0  02:20        1.29
  YS02001784           JUNCTION     0.36     1.13     7.20     0  02:20        1.12
  YS02001786           JUNCTION     0.29     0.90     6.93     0  02:20        0.87
  YS02001788           JUNCTION     0.21     0.63     6.60     0  02:12        0.62
  YS02001790           JUNCTION     0.25     0.73     6.37     0  02:12        0.71
  YS02001791           JUNCTION     0.16     0.44     5.91     0  02:10        0.44
  YS02001793           JUNCTION     0.08     0.25     5.08     0  02:12        0.23
  YS02001882           JUNCTION     0.44     1.75     8.47     0  02:20        1.69
  YS02001884           JUNCTION     0.52     1.83     8.45     0  02:20        1.79
  YS02001887           JUNCTION     0.59     1.88     8.42     0  02:13        1.88
  YS02001890           JUNCTION     0.62     1.81     8.32     0  02:04        1.81
  YS02001895           JUNCTION     0.40     1.59     8.34     0  02:20        1.58
  YS02001898           JUNCTION     0.41     1.60     8.34     0  02:20        1.56
  YS02001901           JUNCTION     0.51     1.71     8.31     0  02:20        1.67
  YS02001904           JUNCTION     0.50     1.65     8.28     0  02:20        1.63
  YS02001907           JUNCTION     0.79     1.96     8.25     0  02:04        1.96
  YS02001910           JUNCTION     0.62     2.00     8.51     0  02:13        2.00
  YS02001915           JUNCTION     0.45     2.00     8.72     0  02:13        2.00
  YS02001918           JUNCTION     0.28     1.81     8.88     0  02:04        1.66
  YS02001920           JUNCTION     0.36     2.04     9.05     0  02:05        1.75
  YS02001923           JUNCTION     0.22     1.91     9.17     0  02:05        1.49
  YS02001926           JUNCTION     0.24     1.79     9.24     0  02:05        1.33
  YS02001929           JUNCTION     0.15     1.78     9.47     0  02:05        1.78
  YS02006553           JUNCTION     0.80     2.00     8.28     0  02:13        2.00
  YS02006556           JUNCTION     0.77     2.00     8.31     0  02:13        2.00
  YS02006558           JUNCTION     0.81     2.08     8.35     0  02:13        2.08
  YS02006561           JUNCTION     0.22     0.93     7.59     0  02:20        0.91
  YS02163301           JUNCTION     0.63     1.97     8.49     0  02:13        1.97
  YS02163601           JUNCTION     0.70     2.06     8.46     0  02:20        2.04
  YS02164001           JUNCTION     0.63     1.98     8.44     0  02:20        1.95
  CC-1                 OUTFALL      0.00     0.00     0.00     0  00:00        0.00
  CC-2                 OUTFALL      0.00     0.00     0.00     0  00:00        0.00
  JK-1                 OUTFALL      0.00     0.00     0.00     0  00:00        0.00
  JK-2                 OUTFALL      0.00     0.00     0.00     0  00:00        0.00
  WSC                  OUTFALL      0.18     0.30     0.97     0  03:15        0.30
  CC-storage           STORAGE      0.46     1.23     6.73     0  02:47        1.23
  JK-storage           STORAGE      0.20     2.99     3.79     0  00:00        0.68
  
  
  *******************
  Node Inflow Summary
  *******************
  
  -------------------------------------------------------------------------------------------------
                                  Maximum  Maximum                  Lateral       Total        Flow
                                  Lateral    Total  Time of Max      Inflow      Inflow     Balance
                                   Inflow   Inflow   Occurrence      Volume      Volume       Error
  Node                 Type           LPS      LPS  days hr:min    10^6 ltr    10^6 ltr     Percent
  -------------------------------------------------------------------------------------------------
  WS02003060           JUNCTION     16.53   553.13     0  03:13       0.471        4.88       0.043
  WS02003066           JUNCTION      0.00   536.49     0  03:12           0        4.41       0.033
  WS02003067           JUNCTION      0.00   536.44     0  03:12           0        4.42       0.093
  WS02003069           JUNCTION      0.32   553.48     0  03:13     0.00912        4.89       0.081
  WS02003072           JUNCTION      0.00   553.22     0  03:14           0        4.89       0.146
  WS02003073           JUNCTION      1.82   554.80     0  03:14      0.0519        4.93       0.111
  WS02004401           JUNCTION      0.00   540.51     0  03:07           0        4.51       0.227
  WS02004402           JUNCTION      0.00   539.68     0  03:08           0         4.5       0.231
  WS02004403           JUNCTION      0.00   542.30     0  03:13           0        4.49       0.225
  WS02004404           JUNCTION      0.16   551.34     0  03:10     0.00462        4.49       0.150
  WS02004405           JUNCTION      0.04   599.43     0  03:10     0.00109        4.48       0.212
  WS02004406           JUNCTION      0.00   542.56     0  03:11           0        4.47       0.468
  WS02004407           JUNCTION      0.00   538.72     0  03:11           0        4.45       0.024
  WS02004409           JUNCTION      0.00   538.12     0  03:11           0        4.45       0.059
  WS02004410           JUNCTION      0.00   537.38     0  03:11           0        4.45       0.100
  WS02004411           JUNCTION      0.00   537.05     0  03:11           0        4.44       0.126
  WS02004412           JUNCTION      0.00   536.81     0  03:12           0        4.44       0.167
  WS02004413           JUNCTION      0.00   536.55     0  03:12           0        4.43       0.310
  WS02006109           JUNCTION      1.23   581.69     0  02:45      0.0351        4.56       0.225
  WS02006110           JUNCTION      0.00   579.90     0  02:45           0        4.55       0.134
  WS02006111           JUNCTION      0.00   562.05     0  02:45           0        4.55       0.019
  WS02006112           JUNCTION      0.00   542.81     0  03:05           0        4.54       0.457
  WS02006113           JUNCTION      0.00   589.70     0  02:45           0        4.55       0.040
  WS02006115           JUNCTION      0.00   548.91     0  02:45           0        4.52       0.157
  WS02006116           JUNCTION      0.00   542.06     0  02:45           0        4.52       0.035
  WS02006228           JUNCTION      0.00   578.88     0  02:45           0        4.53       0.095
  WS02006229           JUNCTION      0.00   577.14     0  02:45           0        4.54       0.116
  WS02006230           JUNCTION     10.28   603.47     0  02:24       0.293        4.54       0.032
  WS02006231           JUNCTION      0.00   585.36     0  02:24           0        4.24      -0.155
  WS02006232           JUNCTION      0.00   582.62     0  03:18           0        4.26       0.371
  WS02006234           JUNCTION      0.00   589.36     0  02:45           0        4.23      -0.559
  WS02006235           JUNCTION      0.00   587.23     0  02:45           0        4.39       0.484
  WS02006238           JUNCTION      0.00   425.15     0  03:13           0        3.21      -0.025
  WS02006239           JUNCTION      0.00   423.61     0  03:13           0        3.13       0.054
  WS02006240           JUNCTION      0.00   422.26     0  03:13           0        3.06       0.049
  WS02006242           JUNCTION      0.00   422.44     0  03:13           0        3.04      -0.001
  WS02006243           JUNCTION      0.00   422.91     0  03:34           0        3.01      -0.131
  WS02006245           JUNCTION      0.00   423.42     0  03:31           0        3.02       0.258
  WS02006247           JUNCTION      0.00   424.87     0  03:34           0        3.02      -0.032
  WS02006248           JUNCTION      0.00   424.09     0  03:34           0        3.03       0.102
  WS02006249           JUNCTION      0.00   489.27     0  01:42           0        3.27       0.235
  WS02006251           JUNCTION      0.08   408.74     0  02:52     0.00219        3.27      -0.041
  WS02006252           JUNCTION      0.00   400.00     0  00:00           0        3.27      -0.011
  WS02006256           JUNCTION      0.00   303.36     0  02:28           0        1.84      -3.470
  WSF200               JUNCTION      0.00   536.52     0  03:13           0        4.41       0.009
  YS02001580           JUNCTION      0.00    76.06     0  01:59           0     0.00416       1.887
  YS02001583           JUNCTION      0.00   129.13     0  01:58           0      0.0155      -3.706
  YS02001586           JUNCTION    970.72   970.72     0  02:15        2.09         2.1       0.051
  YS02001590           JUNCTION      0.00   320.76     0  02:20           0        1.48      -0.029
  YS02001593           JUNCTION      0.00   319.77     0  02:20           0        1.48       0.017
  YS02001596           JUNCTION      0.00   317.92     0  02:26           0        1.48      -0.000
  YS02001600           JUNCTION      0.00   318.08     0  02:34           0        1.48       0.024
  YS02001601           JUNCTION   1703.59  2020.98     0  02:14        2.86        4.34       0.024
  YS02001602           JUNCTION      0.00   505.18     0  02:44           0         2.5       0.023
  YS02001605           JUNCTION      0.00   505.17     0  02:44           0        2.38       0.025
  YS02001607           JUNCTION      0.00   505.34     0  02:44           0        2.38       0.086
  YS02001610           JUNCTION      0.00   949.21     0  02:16           0        2.82       0.087
  YS02001613           JUNCTION      0.00   612.71     0  02:16           0        2.29       0.075
  YS02001616           JUNCTION      0.00   612.87     0  02:16           0        2.29       0.022
  YS02001619           JUNCTION   1724.32  1724.32     0  02:15        3.36        5.21       0.002
  YS02001622           JUNCTION      0.00  1053.72     0  02:15           0        4.75       0.001
  YS02001625           JUNCTION      0.00  1500.79     0  02:16           0        5.04       0.179
  YS02001629           JUNCTION      0.00   942.40     0  02:34           0        4.03       0.026
  YS02001633           JUNCTION   1281.83  1377.69     0  02:03        2.09        5.75       0.063
  YS02001641           JUNCTION      0.00  1377.81     0  02:03           0        5.39       0.058
  YS02001644           JUNCTION   1142.88  1783.65     0  02:14        1.82         7.2       0.046
  YS02001647           JUNCTION      0.00  1776.50     0  02:03           0        6.55       0.008
  YS02001649           JUNCTION      0.00  2041.71     0  02:04           0        8.22       0.007
  YS02001652           JUNCTION      0.00  1136.89     0  02:13           0        1.67      -0.064
  YS02001655           JUNCTION      0.15  1138.08     0  02:13     0.00439        1.67       0.017
  YS02001658           JUNCTION      0.00  1137.69     0  02:13           0        1.67      -0.004
  YS02001661           JUNCTION      0.00  1138.31     0  02:13           0        1.67       0.008
  YS02001664           JUNCTION   1121.13  1121.13     0  02:13        1.67        1.67      -0.005
  YS02001745           JUNCTION    707.10   707.10     0  02:13           1           1       0.104
  YS02001748           JUNCTION      0.04   715.68     0  02:13     0.00128           1      -0.147
  YS02001751           JUNCTION      0.01   715.02     0  02:13    0.000313        1.01       0.010
  YS02001754           JUNCTION      0.26   715.16     0  02:13     0.00741        1.01      -0.075
  YS02001757           JUNCTION      0.00  3598.04     0  02:13           0        12.4       0.053
  YS02001759           JUNCTION    984.02  1505.37     0  02:13        1.39        3.19      -0.007
  YS02001762           JUNCTION      0.00   822.48     0  02:20           0         1.8       0.008
  YS02001765           JUNCTION      0.00   822.66     0  02:20           0         1.8       0.010
  YS02001767           JUNCTION      0.54   822.50     0  02:20      0.0152         1.8       0.008
  YS02001770           JUNCTION   1379.40  1379.40     0  02:13        2.11        2.15       0.002
  YS02001774           JUNCTION      0.00   837.00     0  02:14           0       0.373       0.344
  YS02001779           JUNCTION      0.01   836.87     0  02:14    0.000142       0.332      -0.117
  YS02001783           JUNCTION      0.00  1169.75     0  02:13           0         4.5       0.007
  YS02001784           JUNCTION      1.06  1171.66     0  02:13      0.0302        4.53       0.012
  YS02001786           JUNCTION      0.06  1172.64     0  02:13      0.0016        4.53       0.017
  YS02001788           JUNCTION      0.07  1173.20     0  02:13     0.00202        4.53       0.006
  YS02001790           JUNCTION      0.15  1181.41     0  02:12     0.00442        4.53       0.012
  YS02001791           JUNCTION      0.00  1296.32     0  02:12           0        4.53      -0.018
  YS02001793           JUNCTION      0.00  1267.96     0  02:12           0        4.53      -0.014
  YS02001882           JUNCTION      0.00    37.63     0  02:01           0      0.0128       6.063
  YS02001884           JUNCTION      0.00    44.78     0  02:00           0      0.0491       5.710
  YS02001887           JUNCTION   1057.09  1061.98     0  02:13        1.44        1.48       0.311
  YS02001890           JUNCTION      0.00  1061.04     0  02:13           0        1.43       0.364
  YS02001895           JUNCTION      0.00   517.97     0  02:16           0        1.23       0.150
  YS02001898           JUNCTION      0.00   517.95     0  02:16           0        1.23       0.029
  YS02001901           JUNCTION      0.00   518.25     0  02:16           0        1.23       0.276
  YS02001904           JUNCTION      0.00   518.09     0  02:17           0        1.23       0.247
  YS02001907           JUNCTION      0.00  2604.17     0  02:13           0        4.42       0.411
  YS02001910           JUNCTION      0.00  1837.67     0  02:14           0        3.14       0.231
  YS02001915           JUNCTION   1234.32  1837.89     0  02:14        2.01        3.17       0.053
  YS02001918           JUNCTION      0.00   607.62     0  02:14           0        1.18       0.015
  YS02001920           JUNCTION      2.87   607.71     0  02:14      0.0818        1.17       0.086
  YS02001923           JUNCTION      0.04   603.94     0  02:14     0.00107        1.08      -0.004
  YS02001926           JUNCTION      0.05   603.82     0  02:14     0.00149        1.06       0.028
  YS02001929           JUNCTION    603.17   603.17     0  02:14        1.06        1.06      -0.060
  YS02006553           JUNCTION      0.00   802.10     0  02:31           0        2.53       0.475
  YS02006556           JUNCTION      0.00   802.14     0  02:31           0        2.54       0.330
  YS02006558           JUNCTION   1419.86  1419.86     0  02:13        2.11        4.58       0.076
  YS02006561           JUNCTION      0.00  1170.23     0  02:13           0         4.5       0.001
  YS02163301           JUNCTION      0.00   943.48     0  02:34           0        4.02       0.041
  YS02163601           JUNCTION      0.11  1377.81     0  02:03     0.00313        5.38       0.096
  YS02164001           JUNCTION      0.00  1377.99     0  02:03           0        5.38       0.049
  CC-1                 OUTFALL       0.00   683.00     0  00:00           0        5.37       0.000
  CC-2                 OUTFALL       0.00   683.00     0  00:00           0        5.37       0.000
  JK-1                 OUTFALL       0.00  1000.00     0  00:00           0        1.44       0.000
  JK-2                 OUTFALL       0.00  1000.00     0  00:00           0        1.44       0.000
  WSC                  OUTFALL       0.00   554.49     0  03:15           0        4.93       0.000
  CC-storage           STORAGE       0.00  3599.01     0  02:13           0        14.6      -0.296
  JK-storage           STORAGE       0.00  1407.09     0  02:12           0        4.68      -0.432
  
  
  **********************
  Node Surcharge Summary
  **********************
  
  Surcharging occurs when water rises above the top of the highest conduit.
  ---------------------------------------------------------------------
                                               Max. Height   Min. Depth
                                   Hours       Above Crown    Below Rim
  Node                 Type      Surcharged         Meters       Meters
  ---------------------------------------------------------------------
  WS02004404           JUNCTION        0.01          0.022        2.758
  WS02006109           JUNCTION        1.97          0.925        0.895
  WS02006110           JUNCTION        0.49          1.065        0.785
  WS02006112           JUNCTION        1.46          0.113        1.567
  WS02006228           JUNCTION        1.96          0.674        1.526
  WS02006229           JUNCTION        1.99          0.779        1.671
  WS02006230           JUNCTION        0.56          0.824        0.746
  WS02006231           JUNCTION        1.16          1.257        0.273
  WS02006232           JUNCTION        2.06          1.480        0.000
  WS02006234           JUNCTION        1.59          1.240        0.000
  WS02006235           JUNCTION        1.77          1.290        0.000
  WS02006238           JUNCTION        1.95          1.430        0.000
  WS02006239           JUNCTION        1.91          1.290        0.000
  WS02006240           JUNCTION        1.99          1.390        0.000
  WS02006242           JUNCTION        2.08          0.820        0.000
  WS02006243           JUNCTION        2.00          0.770        0.000
  WS02006245           JUNCTION        2.00          0.850        0.000
  WS02006247           JUNCTION        2.02          0.760        0.000
  WS02006248           JUNCTION        1.99          0.380        0.000
  WS02006249           JUNCTION        2.00          0.390        0.000
  WS02006251           JUNCTION        1.52          0.494        0.686
  WS02006252           JUNCTION        2.27          1.100        0.000
  WS02006256           JUNCTION        5.52          2.050        0.000
  YS02001580           JUNCTION        0.74          0.450        0.000
  YS02001583           JUNCTION        0.74          0.375        0.125
  YS02001586           JUNCTION        0.84          0.510        0.000
  YS02001590           JUNCTION        0.93          0.750        0.000
  YS02001593           JUNCTION        0.93          0.823        0.017
  YS02001596           JUNCTION        1.05          1.052        0.018
  YS02001600           JUNCTION        1.23          1.190        0.000
  YS02001601           JUNCTION        1.56          1.440        0.000
  YS02001602           JUNCTION        1.45          1.270        0.000
  YS02001605           JUNCTION        1.40          1.180        0.000
  YS02001607           JUNCTION        0.86          0.675        0.005
  YS02001610           JUNCTION        0.89          0.680        0.000
  YS02001613           JUNCTION        0.84          0.680        0.020
  YS02001616           JUNCTION        0.80          0.610        0.000
  YS02001619           JUNCTION        0.78          0.610        0.000
  YS02001622           JUNCTION        0.77          0.592        0.028
  YS02001625           JUNCTION        0.99          0.780        0.000
  YS02001629           JUNCTION        0.68          0.470        0.000
  YS02001633           JUNCTION        1.00          1.060        0.000
  YS02001641           JUNCTION        0.87          0.978        0.122
  YS02001644           JUNCTION        0.80          0.920        0.000
  YS02001647           JUNCTION        0.54          0.759        0.141
  YS02001649           JUNCTION        0.60          0.984        0.066
  YS02001652           JUNCTION        0.44          1.011        0.119
  YS02001655           JUNCTION        0.33          0.661        0.539
  YS02001658           JUNCTION        0.24          0.442        0.858
  YS02001661           JUNCTION        0.08          0.173        1.217
  YS02001748           JUNCTION        0.15          0.593        0.597
  YS02001751           JUNCTION        0.26          0.778        0.422
  YS02001754           JUNCTION        0.32          0.800        0.350
  YS02001757           JUNCTION        0.61          1.025        0.185
  YS02001759           JUNCTION        0.54          1.061        0.149
  YS02001762           JUNCTION        0.51          1.018        0.132
  YS02001765           JUNCTION        0.47          0.984        0.116
  YS02001767           JUNCTION        0.44          0.955        0.075
  YS02001770           JUNCTION        0.43          0.920        0.000
  YS02001774           JUNCTION        0.50          1.004        0.046
  YS02001779           JUNCTION        0.35          0.680        0.000
  YS02001783           JUNCTION        0.64          0.486        1.114
  YS02001784           JUNCTION        0.61          0.332        1.158
  YS02001786           JUNCTION        0.50          0.096        1.334
  YS02001882           JUNCTION        0.58          0.754        0.076
  YS02001884           JUNCTION        0.59          0.772        0.098
  YS02001887           JUNCTION        0.63          0.830        0.120
  YS02001890           JUNCTION        0.65          0.760        0.000
  YS02001895           JUNCTION        0.57          0.592        0.158
  YS02001898           JUNCTION        0.56          0.574        0.166
  YS02001901           JUNCTION        0.61          0.706        0.164
  YS02001904           JUNCTION        0.60          0.652        0.198
  YS02001907           JUNCTION        0.90          0.950        0.000
  YS02001910           JUNCTION        0.68          1.005        0.095
  YS02001915           JUNCTION        0.58          1.000        0.000
  YS02001918           JUNCTION        0.48          0.810        0.000
  YS02001920           JUNCTION        0.50          1.045        0.095
  YS02001923           JUNCTION        0.18          0.704        0.116
  YS02001926           JUNCTION        0.22          0.792        0.108
  YS02001929           JUNCTION        0.07          0.780        0.000
  YS02006553           JUNCTION        0.92          0.997        0.193
  YS02006556           JUNCTION        0.78          0.962        0.388
  YS02006558           JUNCTION        0.77          0.982        0.418
  YS02006561           JUNCTION        0.45          0.125        1.025
  YS02163301           JUNCTION        0.97          0.968        0.062
  YS02163601           JUNCTION        1.03          1.061        0.019
  YS02164001           JUNCTION        0.88          0.985        0.115
  
  
  *********************
  Node Flooding Summary
  *********************
  
  Flooding refers to all water that overflows a node, whether it ponds or not.
  --------------------------------------------------------------------------
                                                             Total   Maximum
                                 Maximum   Time of Max       Flood    Ponded
                        Hours       Rate    Occurrence      Volume     Depth
  Node                 Flooded       LPS   days hr:min    10^6 ltr    Meters
  --------------------------------------------------------------------------
  WS02006232              0.01     17.95      0  02:31       0.000     0.000
  WS02006234              0.01    160.58      0  01:55       0.000     0.000
  WS02006235              0.01     31.84      0  02:03       0.000     0.000
  WS02006238              0.01     28.42      0  02:17       0.000     0.000
  WS02006239              0.01      4.84      0  02:03       0.000     0.000
  WS02006240              0.01      0.85      0  02:45       0.000     0.000
  WS02006242              0.03     27.53      0  01:57       0.001     0.000
  WS02006243              0.01      4.15      0  02:31       0.000     0.000
  WS02006245              0.01      4.22      0  02:31       0.000     0.000
  WS02006247              0.01      2.00      0  02:31       0.000     0.000
  WS02006248              0.20     35.48      0  02:31       0.010     0.000
  WS02006249              1.36    103.01      0  01:47       0.239     0.000
  WS02006252              0.01    245.63      0  00:00       0.000     0.000
  WS02006256              1.69    293.19      0  00:00       0.642     0.000
  YS02001580              0.01     41.66      0  01:59       0.000     0.000
  YS02001586              0.60    653.26      0  02:15       0.609     0.000
  YS02001590              0.01      8.78      0  01:59       0.000     0.000
  YS02001600              0.01      9.73      0  02:45       0.000     0.000
  YS02001601              0.76   1622.88      0  02:14       1.841     0.000
  YS02001602              0.57     61.98      0  02:34       0.118     0.000
  YS02001605              0.01      0.19      0  02:13       0.000     0.000
  YS02001610              0.51    949.04      0  02:16       0.968     0.000
  YS02001616              0.04     15.46      0  02:20       0.000     0.000
  YS02001619              0.08     78.09      0  02:14       0.012     0.000
  YS02001625              0.44   1500.73      0  02:16       1.368     0.000
  YS02001629              0.20    216.47      0  02:13       0.083     0.000
  YS02001633              0.01      1.01      0  02:13       0.000     0.000
  YS02001644              0.22   1529.68      0  02:13       0.631     0.000
  YS02001770              0.04     60.47      0  02:13       0.003     0.000
  YS02001779              0.20    836.81      0  02:14       0.316     0.000
  YS02001890              0.25    544.53      0  02:13       0.200     0.000
  YS02001907              0.43   2603.71      0  02:13       1.932     0.000
  YS02001915              0.01      1.34      0  02:13       0.000     0.000
  YS02001918              0.01     72.30      0  02:05       0.000     0.000
  YS02001929              0.01    264.34      0  02:05       0.000     0.000
  
  
  **********************
  Storage Volume Summary
  **********************
  
  ------------------------------------------------------------------------------------------------
                         Average    Avg   Evap  Exfil     Maximum    Max    Time of Max    Maximum
                          Volume   Pcnt   Pcnt   Pcnt      Volume   Pcnt     Occurrence    Outflow
  Storage Unit           1000 m³   Full   Loss   Loss     1000 m³   Full    days hr:min        LPS
  ------------------------------------------------------------------------------------------------
  CC-storage               1.282   20.0    0.0    0.0       3.415   53.3       0  02:47    1783.53
  JK-storage               0.010    3.4    0.0    0.0       0.150   51.6       0  00:00    2300.00
  
  
  ***********************
  Outfall Loading Summary
  ***********************
  
  -----------------------------------------------------------
                         Flow       Avg       Max       Total
                         Freq      Flow      Flow      Volume
  Outfall Node           Pcnt       LPS       LPS    10^6 ltr
  -----------------------------------------------------------
  CC-1                  51.21    683.00    683.00       5.366
  CC-2                  51.21    683.00    683.00       5.366
  JK-1                   9.53   1000.00   1000.00       1.436
  JK-2                   9.53   1000.00   1000.00       1.436
  WSC                   99.94    262.44    554.49       4.925
  -----------------------------------------------------------
  System                44.28   3628.44   3906.56      18.528
  
  
  ********************
  Link Flow Summary
  ********************
  
  -----------------------------------------------------------------------------
                                 Maximum  Time of Max   Maximum    Max/    Max/
                                  |Flow|   Occurrence   |Veloc|    Full    Full
  Link                 Type          LPS  days hr:min     m/sec    Flow   Depth
  -----------------------------------------------------------------------------
  1                    CONDUIT    554.49     0  03:15      2.83    0.19    0.30
  WS02003060WS02003069 CONDUIT    553.16     0  03:13      1.64    0.22    0.34
  WS02003066WSF200     CONDUIT    536.52     0  03:13      2.85    0.09    0.22
  WS02003067WS02003066 CONDUIT    536.49     0  03:12      1.21    0.17    0.42
  WS02003069WS02003072 CONDUIT    553.22     0  03:14      1.37    0.27    0.39
  WS02003072WS02003073 CONDUIT    552.97     0  03:14      1.43    1.19    0.37
  WS02004401WS02004402 CONDUIT    539.68     0  03:08      1.22    0.65    0.89
  WS02004402WS02004403 CONDUIT    542.30     0  03:13      1.24    0.78    0.91
  WS02004403WS02004404 CONDUIT    551.18     0  03:10      1.24    0.40    0.96
  WS02004404WS02004405 CONDUIT    599.39     0  03:10      1.45    5.87    0.98
  WS02004405WS02004406 CONDUIT    542.56     0  03:11      1.46    1.07    0.96
  WS02004406WS02004407 CONDUIT    538.72     0  03:11      1.04    0.24    0.63
  WS02004407WS02004409 CONDUIT    538.12     0  03:11      1.59    0.19    0.48
  WS02004409WS02004410 CONDUIT    537.38     0  03:11      1.06    0.69    0.67
  WS02004410WS02004411 CONDUIT    537.05     0  03:11      1.13    0.73    0.69
  WS02004411WS02004412 CONDUIT    536.81     0  03:12      1.20    0.76    0.69
  WS02004412WS02004413 CONDUIT    536.55     0  03:12      1.22    0.36    0.78
  WS02004413WS02003067 CONDUIT    536.44     0  03:12      1.11    0.23    0.59
  WS02006109WS02006110 CONDUIT    579.90     0  02:45      1.15    1.11    1.00
  WS02006110WS02006113 CONDUIT    589.70     0  02:45      1.41    0.54    0.79
  WS02006111WS02006112 CONDUIT    542.81     0  03:05      1.95    0.26    0.67
  WS02006112WS02006115 CONDUIT    548.91     0  02:45      0.86    0.32    0.88
  WS02006113WS02006111 CONDUIT    562.05     0  02:45      2.47    0.67    0.46
  WS02006115WS02006116 CONDUIT    542.06     0  02:45      1.29    0.70    0.78
  WS02006116WS02004401 CONDUIT    540.51     0  03:07      1.21    0.75    0.86
  WS02006228WS02006109 CONDUIT    580.46     0  02:45      1.15    2.54    1.00
  WS02006229WS02006228 CONDUIT    578.88     0  02:45      1.15    1.92    1.00
  WS02006230WS02006229 CONDUIT    577.14     0  02:45      1.50   12.84    1.00
  WS02006231WS02006230 CONDUIT    593.19     0  02:24      1.60    9.00    1.00
  WS02006232WS02006231 CONDUIT    585.36     0  02:24      1.52    1.23    1.00
  WS02006234WS02006232 CONDUIT    582.62     0  03:18      1.51    1.18    1.00
  WS02006235WS02006234 CONDUIT    589.36     0  02:45      1.53    6.22    1.00
  WS02006238WS02006235 CONDUIT    425.28     0  03:13      1.45    0.95    1.00
  WS02006239WS02006238 CONDUIT    425.15     0  03:13      1.11    1.36    1.00
  WS02006240WS02006239 CONDUIT    423.61     0  03:13      1.24    1.33    1.00
  WS02006242WS02006240 CONDUIT    422.26     0  03:13      1.16    1.68    1.00
  WS02006243WS02006242 CONDUIT    422.44     0  03:13      1.38    0.90    1.00
  WS02006245WS02006243 CONDUIT    422.91     0  03:34      1.44    1.25    1.00
  WS02006247WS02006245 CONDUIT    423.42     0  03:31      1.43    3.36    1.00
  WS02006248WS02006247 CONDUIT    424.87     0  03:34      1.42    0.92    1.00
  WS02006249WS02006248 CONDUIT    424.09     0  03:34      1.36    2.32    1.00
  WS02006251WS02006249 CONDUIT    489.27     0  01:42      2.03    1.41    1.00
  WS02006252WS02006251 CONDUIT    408.66     0  02:52      4.89    1.50    1.00
  WS02006256WS02006235 CONDUIT    288.91     0  00:00      4.23    3.06    1.00
  WSF200WS02003060     CONDUIT    536.60     0  03:13      2.06    0.12    0.28
  YS02001580YS02001583 CONDUIT     76.06     0  01:59      0.55    0.29    1.00
  YS02001583YS02001586 CONDUIT    129.13     0  01:58      0.53    0.20    1.00
  YS02001586YS02001590 CONDUIT    320.76     0  02:20      1.28    0.56    1.00
  YS02001590YS02001593 CONDUIT    319.77     0  02:20      1.13    2.01    1.00
  YS02001593YS02001596 CONDUIT    317.92     0  02:26      1.78    0.50    1.00
  YS02001596YS02001600 CONDUIT    318.08     0  02:34      1.27    0.62    1.00
  YS02001600YS02001601 CONDUIT    318.37     0  02:20      1.13    0.55    1.00
  YS02001601YS02001602 CONDUIT    505.18     0  02:44      1.79    1.82    1.00
  YS02001602YS02001605 CONDUIT    505.17     0  02:44      1.79   10.69    1.00
  YS02001605YS02001607 CONDUIT    505.34     0  02:44      1.79    2.77    1.00
  YS02001607YS02001610 CONDUIT    506.13     0  02:44      0.64    0.48    1.00
  YS02001610YS02001613 CONDUIT    613.00     0  02:16      0.78    0.71    1.00
  YS02001613YS02001616 CONDUIT    612.71     0  02:16      0.78    0.53    1.00
  YS02001616YS02001619 CONDUIT    612.87     0  02:16      0.78    1.06    1.00
  YS02001619YS02001622 CONDUIT   1053.72     0  02:15      1.34    1.55    1.00
  YS02001622YS02001625 CONDUIT   1053.58     0  02:15      1.34    0.56    1.00
  YS02001625YS02001629 CONDUIT    942.40     0  02:34      1.20    0.45    1.00
  YS02001629YS02163301 CONDUIT    943.48     0  02:34      1.20    1.16    1.00
  YS02001633YS02163601 CONDUIT   1377.70     0  02:03      1.75    1.45    1.00
  YS02001641YS02001644 CONDUIT   1377.94     0  02:03      1.75    4.45    1.00
  YS02001644YS02001647 CONDUIT   1776.50     0  02:03      2.27    1.04    1.00
  YS02001647YS02001649 CONDUIT   1782.45     0  02:04      2.33    0.94    1.00
  YS02001649YS02001757 CONDUIT   2041.07     0  02:04      2.60    1.24    1.00
  YS02001652YS02001649 CONDUIT   1137.48     0  02:13      1.45    0.56    1.00
  YS02001655YS02001652 CONDUIT   1136.89     0  02:13      1.45    0.55    1.00
  YS02001658YS02001655 CONDUIT   1137.93     0  02:13      1.84    0.48    1.00
  YS02001661YS02001658 CONDUIT   1137.69     0  02:13      2.29    0.45    1.00
  YS02001664YS02001661 CONDUIT   1138.31     0  02:13      2.27    0.36    0.86
  YS02001745YS02001748 CONDUIT    715.64     0  02:13      2.14    0.28    0.94
  YS02001748YS02001751 CONDUIT    715.00     0  02:13      1.65    0.36    1.00
  YS02001751YS02001754 CONDUIT    714.90     0  02:13      1.38    0.34    1.00
  YS02001754YS02001757 CONDUIT    715.03     0  02:13      0.91    0.29    1.00
  YS02001757CaochengTiaoxuchi CONDUIT   3599.01     0  02:13      5.82    1.56    1.00
  YS02001759YS02001757 CONDUIT   1507.95     0  02:13      1.92    1.07    1.00
  YS02001762YS02001759 CONDUIT    822.43     0  02:20      1.05    0.95    1.00
  YS02001765YS02001762 CONDUIT    822.48     0  02:20      1.05    0.77    1.00
  YS02001767YS02001765 CONDUIT    822.66     0  02:20      1.05    1.03    1.00
  YS02001770YS02001767 CONDUIT    821.97     0  02:20      1.05    3.26    1.00
  YS02001774YS02001770 CONDUIT    837.00     0  02:14      1.07    0.53    1.00
  YS02001779YS02001774 CONDUIT    836.87     0  02:14      1.07    0.42    1.00
  YS02001783YS02001784 CONDUIT   1170.60     0  02:13      2.33    1.61    1.00
  YS02001784YS02001785 CONDUIT   1172.58     0  02:13      2.33    2.73    1.00
  YS02001786YS02001788 CONDUIT   1173.13     0  02:13      2.50    2.26    0.89
  YS02001788YS02001790 CONDUIT   1181.25     0  02:12      2.72    0.87    0.85
  YS02001790YS02001791 CONDUIT   1296.32     0  02:12      3.43    1.41    0.71
  YS02001791YS02001793 CONDUIT   1267.96     0  02:12      6.82    0.54    0.43
  YS02001793JiankangQianchi CONDUIT   1407.09     0  02:12     14.56    0.11    0.50
  YS02001882YS02001884 CONDUIT     37.63     0  02:01      0.14    0.04    1.00
  YS02001884YS02001887 CONDUIT     44.78     0  02:00      0.10    0.06    1.00
  YS02001887YS02001890 CONDUIT   1061.04     0  02:13      1.35    1.82    1.00
  YS02001890YS02001895 CONDUIT    517.97     0  02:16      0.66    0.24    1.00
  YS02001895YS02001898 CONDUIT    517.95     0  02:16      0.66    0.90    1.00
  YS02001898YS02001901 CONDUIT    518.25     0  02:16      0.66    0.33    1.00
  YS02001901YS02001904 CONDUIT    518.09     0  02:17      0.66    0.80    1.00
  YS02001904YS02001907 CONDUIT    518.00     0  02:17      0.66    0.18    1.00
  YS02001907YS02006553 CONDUIT    802.10     0  02:31      0.89    0.94    1.00
  YS02001910YS02001907 CONDUIT   1838.17     0  02:14      2.34    1.04    1.00
  YS02001915YS02001910 CONDUIT   1837.67     0  02:14      2.34    0.91    1.00
  YS02001918YS02001915 CONDUIT    607.77     0  02:14      0.77    0.34    1.00
  YS02001920YS02001918 CONDUIT    607.62     0  02:14      0.77    0.59    1.00
  YS02001923YS02001920 CONDUIT    604.84     0  02:14      0.77    0.27    1.00
  YS02001926YS02001923 CONDUIT    603.91     0  02:14      0.94    0.86    1.00
  YS02001929YS02001926 CONDUIT    603.77     0  02:14      1.08    0.29    1.00
  YS02006553YS02006556 CONDUIT    802.14     0  02:31      1.02    0.69    1.00
  YS02006556YS02006558 CONDUIT    803.04     0  02:31      1.02    0.63    1.00
  YS02006558YS02006561 CONDUIT   1170.23     0  02:13      4.14    2.59    1.00
  YS02006561YS02001783 CONDUIT   1169.75     0  02:13      2.33    0.61    1.00
  YS02163301YS02001633 CONDUIT    943.78     0  02:37      1.20    0.89    1.00
  YS02163601YS02164001 CONDUIT   1377.99     0  02:03      1.75    1.22    1.00
  YS02164001YS02001641 CONDUIT   1377.81     0  02:03      1.75    1.88    1.00
  CC-R1                PUMP       683.00     0  00:00              1.00
  CC-R2                PUMP       683.00     0  00:00              1.00
  CC-S1                PUMP       200.00     0  00:00              1.00
  CC-S2                PUMP       200.00     0  00:00              1.00
  JK-R1                PUMP      1000.00     0  00:00              1.00
  JK-R2                PUMP      1000.00     0  00:00              1.00
  JK-S                 PUMP       300.00     0  00:00              1.00
  
  
  ***************************
  Flow Classification Summary
  ***************************
  
  -------------------------------------------------------------------------------------
                      Adjusted    ---------- Fraction of Time in Flow Class ---------- 
                       /Actual         Up    Down  Sub   Sup   Up    Down  Norm  Inlet 
  Conduit               Length    Dry  Dry   Dry   Crit  Crit  Crit  Crit  Ltd   Ctrl  
  -------------------------------------------------------------------------------------
  1                       1.00   0.00  0.00  0.00  0.00  1.00  0.00  0.00  0.37  0.00
  WS02003060WS02003069    1.00   0.00  0.00  0.00  0.98  0.02  0.00  0.00  0.73  0.00
  WS02003066WSF200        1.00   0.05  0.00  0.00  0.00  0.95  0.00  0.00  0.81  0.00
  WS02003067WS02003066    1.00   0.05  0.00  0.00  0.95  0.00  0.00  0.00  0.00  0.00
  WS02003069WS02003072    1.00   0.00  0.00  0.00  0.99  0.01  0.00  0.00  0.74  0.00
  WS02003072WS02003073    1.00   0.00  0.00  0.00  0.00  0.00  0.00  1.00  0.00  0.00
  WS02004401WS02004402    1.00   0.02  0.00  0.00  0.98  0.00  0.00  0.00  0.00  0.00
  WS02004402WS02004403    1.00   0.02  0.00  0.00  0.98  0.00  0.00  0.00  0.00  0.00
  WS02004403WS02004404    1.00   0.00  0.03  0.00  0.97  0.00  0.00  0.00  0.00  0.00
  WS02004404WS02004405    1.00   0.00  0.00  0.00  1.00  0.00  0.00  0.00  0.01  0.00
  WS02004405WS02004406    1.00   0.00  0.00  0.00  1.00  0.00  0.00  0.00  0.00  0.00
  WS02004406WS02004407    1.00   0.00  0.03  0.00  0.97  0.00  0.00  0.00  0.00  0.00
  WS02004407WS02004409    1.00   0.03  0.00  0.00  0.95  0.01  0.00  0.00  0.96  0.00
  WS02004409WS02004410    1.00   0.03  0.00  0.00  0.96  0.00  0.00  0.00  0.00  0.00
  WS02004410WS02004411    1.00   0.04  0.00  0.00  0.96  0.00  0.00  0.00  0.00  0.00
  WS02004411WS02004412    1.00   0.04  0.00  0.00  0.96  0.00  0.00  0.00  0.00  0.00
  WS02004412WS02004413    1.00   0.04  0.00  0.00  0.96  0.00  0.00  0.00  0.00  0.00
  WS02004413WS02003067    1.00   0.04  0.01  0.00  0.00  0.00  0.95  0.00  0.00  0.00
  WS02006109WS02006110    1.00   0.00  0.01  0.00  0.98  0.00  0.01  0.00  0.00  0.00
  WS02006110WS02006113    1.00   0.01  0.01  0.00  0.98  0.00  0.00  0.00  0.00  0.00
  WS02006111WS02006112    1.00   0.02  0.00  0.00  0.98  0.00  0.00  0.00  0.98  0.00
  WS02006112WS02006115    1.00   0.02  0.00  0.00  0.97  0.00  0.00  0.00  0.00  0.00
  WS02006113WS02006111    1.00   0.02  0.00  0.00  0.00  0.98  0.00  0.00  0.11  0.00
  WS02006115WS02006116    1.00   0.02  0.00  0.00  0.97  0.00  0.00  0.01  0.00  0.00
  WS02006116WS02004401    1.00   0.02  0.00  0.00  0.98  0.00  0.00  0.00  0.00  0.00
  WS02006228WS02006109    1.00   0.00  0.00  0.00  1.00  0.00  0.00  0.00  0.00  0.00
  WS02006229WS02006228    1.00   0.00  0.00  0.00  0.99  0.00  0.00  0.01  0.00  0.00
  WS02006230WS02006229    1.00   0.00  0.00  0.00  0.99  0.00  0.00  0.01  0.02  0.00
  WS02006231WS02006230    1.00   0.00  0.00  0.00  0.27  0.00  0.73  0.00  0.00  0.00
  WS02006232WS02006231    1.00   0.00  0.00  0.00  0.98  0.00  0.02  0.00  0.00  0.00
  WS02006234WS02006232    1.00   0.00  0.00  0.00  1.00  0.00  0.00  0.00  0.06  0.00
  WS02006235WS02006234    1.00   0.00  0.00  0.00  0.91  0.00  0.09  0.00  0.00  0.00
  WS02006238WS02006235    1.00   0.00  0.00  0.00  0.99  0.01  0.00  0.00  0.00  0.00
  WS02006239WS02006238    1.00   0.00  0.00  0.00  1.00  0.00  0.00  0.00  0.26  0.00
  WS02006240WS02006239    1.00   0.00  0.00  0.00  0.61  0.00  0.00  0.39  0.03  0.00
  WS02006242WS02006240    1.00   0.00  0.00  0.00  1.00  0.00  0.00  0.00  0.04  0.00
  WS02006243WS02006242    1.00   0.00  0.00  0.00  0.99  0.00  0.00  0.00  0.66  0.00
  WS02006245WS02006243    1.00   0.00  0.00  0.00  0.44  0.00  0.00  0.56  0.01  0.00
  WS02006247WS02006245    1.00   0.00  0.00  0.00  0.99  0.00  0.00  0.00  0.00  0.00
  WS02006248WS02006247    1.00   0.00  0.00  0.00  0.99  0.00  0.00  0.00  0.13  0.00
  WS02006249WS02006248    1.00   0.00  0.00  0.00  0.32  0.00  0.68  0.00  0.00  0.00
  WS02006251WS02006249    1.00   0.00  0.00  0.00  1.00  0.00  0.00  0.00  0.69  0.00
  WS02006252WS02006251    1.00   0.00  0.58  0.00  0.19  0.00  0.23  0.00  0.00  0.00
  WS02006256WS02006235    1.00   0.00  0.00  0.00  0.98  0.02  0.00  0.00  0.00  0.00
  WSF200WS02003060        1.00   0.00  0.05  0.00  0.50  0.45  0.00  0.00  0.68  0.00
  YS02001580YS02001583    1.00   0.25  0.54  0.00  0.21  0.00  0.00  0.00  0.64  0.00
  YS02001583YS02001586    1.00   0.40  0.33  0.00  0.26  0.00  0.00  0.00  0.64  0.00
  YS02001586YS02001590    1.00   0.13  0.00  0.00  0.46  0.04  0.00  0.38  0.37  0.00
  YS02001590YS02001593    1.00   0.13  0.01  0.00  0.13  0.00  0.73  0.00  0.00  0.00
  YS02001593YS02001596    1.00   0.13  0.00  0.00  0.15  0.01  0.00  0.70  0.02  0.00
  YS02001596YS02001600    1.00   0.14  0.00  0.00  0.22  0.01  0.00  0.63  0.04  0.00
  YS02001600YS02001601    1.00   0.13  0.01  0.00  0.86  0.00  0.00  0.00  0.58  0.00
  YS02001601YS02001602    1.00   0.13  0.01  0.00  0.87  0.00  0.00  0.00  0.00  0.00
  YS02001602YS02001605    1.00   0.14  0.00  0.00  0.86  0.00  0.00  0.00  0.00  0.00
  YS02001605YS02001607    1.00   0.14  0.00  0.00  0.86  0.00  0.00  0.00  0.00  0.00
  YS02001607YS02001610    1.00   0.13  0.01  0.00  0.86  0.00  0.00  0.00  0.01  0.00
  YS02001610YS02001613    1.00   0.13  0.00  0.00  0.87  0.00  0.00  0.00  0.00  0.00
  YS02001613YS02001616    1.00   0.13  0.00  0.00  0.87  0.00  0.00  0.00  0.00  0.00
  YS02001616YS02001619    1.00   0.13  0.00  0.00  0.87  0.00  0.00  0.00  0.00  0.00
  YS02001619YS02001622    1.00   0.13  0.00  0.00  0.87  0.00  0.00  0.00  0.27  0.00
  YS02001622YS02001625    1.00   0.13  0.00  0.00  0.87  0.00  0.00  0.00  0.04  0.00
  YS02001625YS02001629    1.00   0.13  0.04  0.00  0.18  0.00  0.65  0.00  0.00  0.00
  YS02001629YS02163301    1.00   0.15  0.01  0.00  0.84  0.00  0.00  0.00  0.00  0.00
  YS02001633YS02163601    1.00   0.00  0.01  0.00  0.99  0.00  0.00  0.00  0.15  0.00
  YS02001641YS02001644    1.00   0.00  0.01  0.00  0.99  0.00  0.00  0.00  0.00  0.00
  YS02001644YS02001647    1.00   0.00  0.17  0.00  0.83  0.00  0.00  0.00  0.00  0.00
  YS02001647YS02001649    1.00   0.00  0.17  0.00  0.50  0.33  0.00  0.00  0.55  0.00
  YS02001649YS02001757    1.00   0.00  0.00  0.00  0.64  0.36  0.00  0.00  0.49  0.00
  YS02001652YS02001649    1.00   0.00  0.00  0.00  0.97  0.03  0.00  0.00  0.73  0.00
  YS02001655YS02001652    1.00   0.00  0.00  0.00  0.20  0.01  0.00  0.79  0.08  0.00
  YS02001658YS02001655    1.00   0.00  0.14  0.00  0.63  0.23  0.00  0.00  0.71  0.00
  YS02001661YS02001658    1.00   0.14  0.00  0.00  0.46  0.40  0.00  0.00  0.72  0.00
  YS02001664YS02001661    1.00   0.13  0.00  0.00  0.72  0.15  0.00  0.00  0.84  0.00
  YS02001745YS02001748    1.00   0.00  0.00  0.00  0.06  0.01  0.00  0.93  0.04  0.00
  YS02001748YS02001751    1.00   0.00  0.00  0.00  0.78  0.22  0.00  0.00  0.79  0.00
  YS02001751YS02001754    1.00   0.00  0.00  0.00  0.14  0.01  0.00  0.85  0.04  0.00
  YS02001754YS02001757    1.00   0.00  0.00  0.00  1.00  0.00  0.00  0.00  0.84  0.00
  YS02001757CaochengTiaoxuchi    1.00   0.00  0.00  0.00  0.78  0.22  0.00  0.00  0.75  0.00
  YS02001759YS02001757    1.00   0.00  0.00  0.00  1.00  0.00  0.00  0.00  0.60  0.00
  YS02001762YS02001759    1.00   0.00  0.00  0.00  1.00  0.00  0.00  0.00  0.04  0.00
  YS02001765YS02001762    1.00   0.00  0.00  0.00  1.00  0.00  0.00  0.00  0.71  0.00
  YS02001767YS02001765    1.00   0.00  0.00  0.00  1.00  0.00  0.00  0.00  0.00  0.00
  YS02001770YS02001767    1.00   0.00  0.00  0.00  1.00  0.00  0.00  0.00  0.00  0.00
  YS02001774YS02001770    1.00   0.00  0.13  0.00  0.71  0.00  0.15  0.00  0.03  0.00
  YS02001779YS02001774    1.00   0.00  0.00  0.00  1.00  0.00  0.00  0.00  0.77  0.00
  YS02001783YS02001784    1.00   0.00  0.18  0.00  0.82  0.00  0.00  0.00  0.54  0.00
  YS02001784YS02001785    1.00   0.00  0.00  0.00  1.00  0.00  0.00  0.00  0.16  0.00
  YS02001786YS02001788    1.00   0.00  0.00  0.00  0.79  0.21  0.00  0.00  0.00  0.00
  YS02001788YS02001790    1.00   0.00  0.00  0.00  0.21  0.79  0.00  0.00  0.79  0.00
  YS02001790YS02001791    1.00   0.00  0.00  0.00  0.01  0.99  0.00  0.00  0.16  0.00
  YS02001791YS02001793    1.00   0.00  0.00  0.00  0.00  1.00  0.00  0.00  0.01  0.00
  YS02001793JiankangQianchi    1.00   0.00  0.00  0.00  0.63  0.37  0.00  0.00  0.94  0.00
  YS02001882YS02001884    1.00   0.15  0.01  0.00  0.84  0.00  0.00  0.00  0.00  0.00
  YS02001884YS02001887    1.00   0.06  0.05  0.00  0.89  0.00  0.00  0.00  0.00  0.00
  YS02001887YS02001890    1.00   0.00  0.00  0.00  0.97  0.00  0.03  0.00  0.00  0.00
  YS02001890YS02001895    1.00   0.00  0.16  0.00  0.84  0.00  0.00  0.00  0.00  0.00
  YS02001895YS02001898    1.00   0.16  0.00  0.00  0.82  0.00  0.02  0.00  0.00  0.00
  YS02001898YS02001901    1.00   0.16  0.00  0.00  0.84  0.00  0.00  0.00  0.01  0.00
  YS02001901YS02001904    1.00   0.16  0.00  0.00  0.84  0.00  0.00  0.00  0.00  0.00
  YS02001904YS02001907    1.00   0.00  0.16  0.00  0.84  0.00  0.00  0.00  0.00  0.00
  YS02001907YS02006553    1.00   0.00  0.02  0.00  0.98  0.00  0.00  0.00  0.00  0.00
  YS02001910YS02001907    1.00   0.00  0.00  0.00  0.97  0.00  0.00  0.03  0.12  0.00
  YS02001915YS02001910    1.00   0.00  0.00  0.00  0.97  0.03  0.00  0.00  0.15  0.00
  YS02001918YS02001915    1.00   0.00  0.01  0.00  0.98  0.02  0.00  0.00  0.73  0.00
  YS02001920YS02001918    1.00   0.00  0.01  0.00  0.99  0.00  0.00  0.00  0.00  0.00
  YS02001923YS02001920    1.00   0.00  0.00  0.00  1.00  0.00  0.00  0.00  0.91  0.00
  YS02001926YS02001923    1.00   0.00  0.07  0.00  0.07  0.00  0.85  0.00  0.00  0.00
  YS02001929YS02001926    1.00   0.00  0.13  0.00  0.87  0.00  0.00  0.00  0.81  0.00
  YS02006553YS02006556    1.00   0.01  0.00  0.00  0.99  0.00  0.00  0.00  0.03  0.00
  YS02006556YS02006558    1.00   0.00  0.00  0.00  1.00  0.00  0.00  0.00  0.00  0.00
  YS02006558YS02006561    1.00   0.17  0.00  0.00  0.07  0.76  0.00  0.00  0.18  0.00
  YS02006561YS02001783    1.00   0.18  0.00  0.00  0.11  0.72  0.00  0.00  0.67  0.00
  YS02163301YS02001633    1.00   0.00  0.15  0.00  0.85  0.00  0.00  0.00  0.00  0.00
  YS02163601YS02164001    1.00   0.00  0.08  0.00  0.92  0.00  0.00  0.00  0.00  0.00
  YS02164001YS02001641    1.00   0.01  0.08  0.00  0.92  0.00  0.00  0.00  0.05  0.00
  
  
  *************************
  Conduit Surcharge Summary
  *************************
  
  ----------------------------------------------------------------------------
                                                           Hours        Hours 
                         --------- Hours Full --------   Above Full   Capacity
  Conduit                Both Ends  Upstream  Dnstream   Normal Flow   Limited
  ----------------------------------------------------------------------------
  WS02003072WS02003073        0.01      0.01      0.01      1.75         0.01
  WS02004403WS02004404        0.01      0.01      0.01      0.01         0.01
  WS02004404WS02004405        0.01      0.01      0.01      2.63         0.01
  WS02004405WS02004406        0.01      0.01      0.01      1.19         0.01
  WS02006109WS02006110        0.48      0.48      2.06      0.80         0.01
  WS02006110WS02006113        0.01      0.01      2.03      0.01         0.01
  WS02006111WS02006112        0.01      0.01      2.09      0.01         0.01
  WS02006112WS02006115        0.01      0.01      1.46      0.01         0.01
  WS02006228WS02006109        1.97      2.06      1.97      2.28         1.97
  WS02006229WS02006228        1.96      1.99      1.96      2.19         1.94
  WS02006230WS02006229        2.11      2.14      2.11      2.99         2.11
  WS02006231WS02006230        0.56      0.56      1.40      2.73         0.01
  WS02006232WS02006231        1.15      1.15      2.06      1.23         0.01
  WS02006234WS02006232        1.77      1.78      2.06      1.18         1.07
  WS02006235WS02006234        1.53      1.58      1.75      2.62         0.12
  WS02006238WS02006235        1.82      1.82      2.08      0.01         0.06
  WS02006239WS02006238        1.94      2.06      1.95      2.15         1.59
  WS02006240WS02006239        1.90      2.00      1.91      2.15         1.45
  WS02006242WS02006240        1.99      1.99      2.11      2.22         0.03
  WS02006243WS02006242        2.01      2.01      2.08      0.01         0.29
  WS02006245WS02006243        2.00      2.01      2.00      1.74         1.18
  WS02006247WS02006245        2.00      2.03      2.00      2.27         1.85
  WS02006248WS02006247        2.00      2.00      2.02      0.01         0.33
  WS02006249WS02006248        1.98      1.99      2.00      2.26         0.01
  WS02006251WS02006249        2.00      2.01      2.00      2.23         1.79
  WS02006252WS02006251        2.27      2.27      2.27      2.27         0.01
  WS02006256WS02006235        2.46      2.66      5.32      1.73         0.03
  YS02001580YS02001583        0.74      0.74      0.76      0.01         0.01
  YS02001583YS02001586        0.74      0.74      0.84      0.01         0.01
  YS02001586YS02001590        0.85      0.85      0.93      0.01         0.01
  YS02001590YS02001593        0.93      0.93      0.95      1.00         0.01
  YS02001593YS02001596        0.94      0.94      1.05      0.01         0.01
  YS02001596YS02001600        1.11      1.11      1.23      0.01         0.01
  YS02001600YS02001601        1.29      1.29      1.56      0.01         0.01
  YS02001601YS02001602        1.45      1.45      1.60      1.26         0.01
  YS02001602YS02001605        1.40      1.40      1.45      2.41         0.01
  YS02001605YS02001607        1.35      1.40      1.35      1.52         1.35
  YS02001607YS02001610        0.86      0.86      0.89      0.01         0.01
  YS02001610YS02001613        0.84      0.84      0.89      0.01         0.01
  YS02001613YS02001616        0.80      0.80      0.84      0.01         0.01
  YS02001616YS02001619        0.78      0.78      0.80      0.06         0.08
  YS02001619YS02001622        0.77      0.78      0.77      0.98         0.76
  YS02001622YS02001625        0.77      0.77      0.99      0.01         0.01
  YS02001625YS02001629        0.68      0.68      0.99      0.01         0.01
  YS02001629YS02163301        0.96      0.96      0.97      0.41         0.39
  YS02001633YS02163601        1.00      1.00      1.03      0.56         0.56
  YS02001641YS02001644        0.80      0.87      0.80      1.63         0.79
  YS02001644YS02001647        0.54      0.54      0.80      0.04         0.01
  YS02001647YS02001649        0.54      0.54      0.60      0.01         0.01
  YS02001649YS02001757        0.60      0.60      0.61      0.48         0.41
  YS02001652YS02001649        0.46      0.46      0.60      0.01         0.01
  YS02001655YS02001652        0.33      0.33      0.44      0.01         0.01
  YS02001658YS02001655        0.24      0.24      0.33      0.01         0.01
  YS02001661YS02001658        0.08      0.08      0.24      0.01         0.01
  YS02001664YS02001661        0.01      0.01      0.13      0.01         0.01
  YS02001745YS02001748        0.01      0.01      0.15      0.01         0.01
  YS02001748YS02001751        0.20      0.20      0.26      0.01         0.01
  YS02001751YS02001754        0.26      0.26      0.32      0.01         0.01
  YS02001754YS02001757        0.36      0.36      0.61      0.01         0.01
  YS02001757CaochengTiaoxuchi        0.25      0.61      0.70      0.57         0.14
  YS02001759YS02001757        0.54      0.54      0.61      0.11         0.12
  YS02001762YS02001759        0.51      0.51      0.54      0.01         0.03
  YS02001765YS02001762        0.47      0.47      0.51      0.01         0.01
  YS02001767YS02001765        0.44      0.44      0.47      0.02         0.05
  YS02001770YS02001767        0.44      0.45      0.44      0.68         0.43
  YS02001774YS02001770        0.43      0.43      0.50      0.01         0.01
  YS02001779YS02001774        0.35      0.35      0.50      0.01         0.01
  YS02001783YS02001784        0.61      0.64      0.61      0.81         0.61
  YS02001784YS02001785        0.50      0.61      0.50      1.09         0.50
  YS02001786YS02001788        0.01      0.50      0.01      0.94         0.01
  YS02001790YS02001791        0.01      0.01      0.01      0.60         0.01
  YS02001882YS02001884        0.58      0.58      0.59      0.01         0.01
  YS02001884YS02001887        0.62      0.62      0.63      0.01         0.01
  YS02001887YS02001890        0.65      0.65      0.66      0.17         0.01
  YS02001890YS02001895        0.57      0.57      0.68      0.01         0.01
  YS02001895YS02001898        0.56      0.56      0.57      0.01         0.01
  YS02001898YS02001901        0.57      0.57      0.61      0.01         0.01
  YS02001901YS02001904        0.60      0.60      0.61      0.01         0.01
  YS02001904YS02001907        0.60      0.60      0.92      0.01         0.01
  YS02001907YS02006553        1.10      1.10      1.17      0.01         0.01
  YS02001910YS02001907        0.68      0.68      0.90      0.04         0.04
  YS02001915YS02001910        0.58      0.58      0.68      0.01         0.01
  YS02001918YS02001915        0.48      0.48      0.58      0.01         0.01
  YS02001920YS02001918        0.48      0.48      0.50      0.01         0.01
  YS02001923YS02001920        0.44      0.44      0.50      0.01         0.01
  YS02001926YS02001923        0.18      0.18      0.22      0.01         0.01
  YS02001929YS02001926        0.07      0.07      0.22      0.01         0.01
  YS02006553YS02006556        0.78      0.78      0.92      0.01         0.01
  YS02006556YS02006558        0.85      0.85      0.94      0.01         0.01
  YS02006558YS02006561        0.52      0.77      0.52      1.03         0.52
  YS02006561YS02001783        0.45      0.45      0.64      0.01         0.01
  YS02163301YS02001633        0.97      0.97      1.02      0.01         0.02
  YS02163601YS02164001        0.88      0.88      1.03      0.32         0.01
  YS02164001YS02001641        0.87      0.88      0.87      0.84         0.65
  
  
  ***************
  Pumping Summary
  ***************
  
  ---------------------------------------------------------------------------------------------------------
                                                  Min       Avg       Max     Total     Power    % Time Off
                        Percent   Number of      Flow      Flow      Flow    Volume     Usage    Pump Curve
  Pump                 Utilized   Start-Ups       LPS       LPS       LPS  10^6 ltr     Kw-hr    Low   High
  ---------------------------------------------------------------------------------------------------------
  CC-R1                   27.56           2      0.00    683.00    683.00     5.365     90.66    0.0   67.9
  CC-R2                   27.56           2      0.00    683.00    683.00     5.365     90.66    0.0   67.9
  CC-S1                   28.68           2      0.00    200.00    200.00     1.635     11.97    0.0   25.9
  CC-S2                   28.68           2      0.00    200.00    200.00     1.635     11.97    0.0   25.9
  JK-R1                    5.10          66      0.00   1000.00   1000.00     1.454      4.59    0.0    0.0
  JK-R2                    5.10          66      0.00   1000.00   1000.00     1.454      4.59    0.0    0.0
  JK-S                    21.37         100      0.00    300.00    300.00     1.827     40.67    0.0    0.0
  

  Analysis begun on:  Tue Apr 22 10:17:59 2025
  Analysis ended on:  Tue Apr 22 10:18:01 2025
  Total elapsed time: 00:00:02