
  EPA STORM WATER MANAGEMENT MODEL - VERSION 5.2 (Build 5.2.4)
  PYSWMM TOOLKIT API - VERSION v1.0 (2023-11-27)
  ------------------------------------------------------------

  WARNING 04: minimum elevation drop used for Conduit WS02004404WS02004405
  WARNING 03: negative offset ignored for Link YS02001904YS02001907
  
  ****************
  Analysis Options
  ****************
  Flow Units ............... LPS
  Process Models:
    Rainfall/Runoff ........ YES
    RDII ................... NO
    Snowmelt ............... NO
    Groundwater ............ NO
    Flow Routing ........... YES
    Ponding Allowed ........ NO
    Water Quality .......... NO
  Infiltration Method ...... HORTON
  Flow Routing Method ...... DYNWAVE
  Surcharge Method ......... EXTRAN
  Starting Date ............ 08/28/2015 08:00:00
  Ending Date .............. 08/28/2015 16:00:00
  Antecedent Dry Days ...... 8.0
  Report Time Step ......... 00:01:00
  Wet Time Step ............ 00:01:00
  Dry Time Step ............ 00:01:00
  Routing Time Step ........ 30.00 sec
  Variable Time Step ....... YES
  Maximum Trials ........... 8
  Number of Threads ........ 4
  Head Tolerance ........... 0.001500 m
  
  
  **************************        Volume         Depth
  Runoff Quantity Continuity     hectare-m            mm
  **************************     ---------       -------
  Total Precipitation ......         3.501       105.562
  Evaporation Loss .........         0.000         0.000
  Infiltration Loss ........         0.105         3.152
  Surface Runoff ...........         3.365       101.438
  Final Storage ............         0.033         0.998
  Continuity Error (%) .....        -0.025
  
  
  **************************        Volume        Volume
  Flow Routing Continuity        hectare-m      10^6 ltr
  **************************     ---------     ---------
  Dry Weather Inflow .......         0.025         0.248
  Wet Weather Inflow .......         3.364        33.644
  Groundwater Inflow .......         0.000         0.000
  RDII Inflow ..............         0.000         0.000
  External Inflow ..........         0.083         0.825
  External Outflow .........         2.112        21.116
  Flooding Loss ............         1.517        15.165
  Evaporation Loss .........         0.000         0.000
  Exfiltration Loss ........         0.000         0.000
  Initial Stored Volume ....         0.243         2.431
  Final Stored Volume ......         0.097         0.968
  Continuity Error (%) .....        -0.273
  
  
  *************************
  Highest Continuity Errors
  *************************
  Node YS02001884 (5.13%)
  Node WS02006256 (-3.64%)
  Node YS02001583 (-3.06%)
  
  
  ***************************
  Time-Step Critical Elements
  ***************************
  Link WS02006238WS02006235 (23.65%)
  Link WS02004404WS02004405 (22.79%)
  Link WS02003066WSF200 (11.20%)
  Link YS02001791YS02001793 (9.71%)
  Link YS02001793JiankangQianchi (5.68%)
  
  
  ********************************
  Highest Flow Instability Indexes
  ********************************
  Link WS02006252WS02006251 (39)
  Link WS02006113WS02006111 (37)
  Link YS02001602YS02001605 (25)
  Link WS02006238WS02006235 (24)
  Link YS02001607YS02001610 (23)
  
  
  *********************************
  Most Frequent Nonconverging Nodes
  *********************************
  Node CC-1 (39.59%)
  Node CC-2 (39.59%)
  Node JK-1 (39.59%)
  Node JK-2 (39.59%)
  Node WSC (39.59%)
  
  
  *************************
  Routing Time Step Summary
  *************************
  Minimum Time Step           :     0.00 sec
  Average Time Step           :     2.90 sec
  Maximum Time Step           :     6.43 sec
  % of Time in Steady State   :     0.00
  Average Iterations per Step :     4.71
  % of Steps Not Converging   :    39.59
  Time Step Frequencies       :
     30.000 - 13.228 sec      :     0.00 %
     13.228 -  5.833 sec      :    15.55 %
      5.833 -  2.572 sec      :    30.45 %
      2.572 -  1.134 sec      :    37.22 %
      1.134 -  0.500 sec      :    16.78 %
  
  
  ***************************
  Subcatchment Runoff Summary
  ***************************
  
  ------------------------------------------------------------------------------------------------------------------------------
                            Total      Total      Total      Total     Imperv       Perv      Total       Total     Peak  Runoff
                           Precip      Runon       Evap      Infil     Runoff     Runoff     Runoff      Runoff   Runoff   Coeff
  Subcatchment                 mm         mm         mm         mm         mm         mm         mm    10^6 ltr      LPS
  ------------------------------------------------------------------------------------------------------------------------------
  sub60                    105.56       0.00       0.00       1.88      91.71      10.79     102.49        1.35   978.52   0.971
  sub61                    105.56       0.00       0.00       2.73      86.50      15.22     101.72        1.87  1362.26   0.964
  sub62                    105.56       0.00       0.00       1.25      95.84       7.19     103.04        2.82  1923.98   0.976
  sub63                    105.56       0.00       0.00       5.04      73.99      25.58      99.57        2.26  1552.64   0.943
  sub64                    105.56       0.00       0.00       2.55      88.53      13.29     101.82        2.45  1591.38   0.965
  sub65                    105.56       0.00       0.00       2.21      90.59      11.52     102.11        2.81  1780.43   0.967
  sub66                    105.56       0.00       0.00       6.27      73.88      24.35      98.22        4.58  2407.28   0.930
  sub67                    105.56       0.00       0.00       1.20      95.89       7.24     103.13        1.92  1470.44   0.977
  sub68                    105.56       0.00       0.00       2.26      89.61      12.52     102.13        2.81  1967.70   0.967
  sub69                    105.56       0.00       0.00       2.04      89.62      13.80     103.42        3.83  2364.61   0.980
  sub70                    105.56       0.00       0.00       6.85      69.51      29.04      98.55        2.85  1348.34   0.934
  sub71                    105.56       0.00       0.00       1.29      95.80       7.16     102.96        2.69  1715.17   0.975
  sub72                    105.56       0.00       0.00       1.15      96.77       6.24     103.02        1.42   833.74   0.976
  
  
  ******************
  Node Depth Summary
  ******************
  
  ---------------------------------------------------------------------------------
                                 Average  Maximum  Maximum  Time of Max    Reported
                                   Depth    Depth      HGL   Occurrence   Max Depth
  Node                 Type       Meters   Meters   Meters  days hr:min      Meters
  ---------------------------------------------------------------------------------
  WS02003060           JUNCTION     0.24     0.38     5.31     0  03:16        0.38
  WS02003066           JUNCTION     0.19     0.30     5.85     0  03:16        0.30
  WS02003067           JUNCTION     0.49     0.70     6.02     0  03:16        0.70
  WS02003069           JUNCTION     0.26     0.43     5.01     0  03:17        0.43
  WS02003072           JUNCTION     0.32     0.50     4.87     0  03:17        0.50
  WS02003073           JUNCTION     0.18     0.30     4.36     0  03:18        0.30
  WS02004401           JUNCTION     0.60     0.85     6.85     0  03:13        0.85
  WS02004402           JUNCTION     0.63     0.88     6.84     0  03:11        0.88
  WS02004403           JUNCTION     0.65     0.89     6.82     0  03:11        0.89
  WS02004404           JUNCTION     0.72     0.96     6.81     0  03:13        0.96
  WS02004405           JUNCTION     0.72     0.95     6.80     0  03:11        0.95
  WS02004406           JUNCTION     0.72     0.96     6.79     0  03:11        0.96
  WS02004407           JUNCTION     0.18     0.30     6.61     0  03:11        0.30
  WS02004409           JUNCTION     0.40     0.67     6.44     0  03:15        0.67
  WS02004410           JUNCTION     0.42     0.68     6.40     0  03:15        0.68
  WS02004411           JUNCTION     0.44     0.69     6.37     0  03:15        0.69
  WS02004412           JUNCTION     0.46     0.70     6.34     0  03:15        0.70
  WS02004413           JUNCTION     0.61     0.86     6.33     0  03:15        0.86
  WS02006109           JUNCTION     0.69     1.59     8.20     0  02:48        1.10
  WS02006110           JUNCTION     0.68     1.80     8.39     0  02:48        1.03
  WS02006111           JUNCTION     0.18     0.29     6.99     0  01:42        0.29
  WS02006112           JUNCTION     0.76     1.11     6.99     0  03:17        1.05
  WS02006113           JUNCTION     0.29     0.46     7.35     0  01:42        0.45
  WS02006115           JUNCTION     0.49     0.75     6.89     0  03:13        0.75
  WS02006116           JUNCTION     0.57     0.83     6.87     0  03:10        0.83
  WS02006228           JUNCTION     0.69     1.35     8.00     0  02:48        1.27
  WS02006229           JUNCTION     0.67     1.40     8.10     0  02:47        1.32
  WS02006230           JUNCTION     0.69     1.58     8.33     0  02:47        1.28
  WS02006231           JUNCTION     0.48     2.21     9.33     0  02:29        1.54
  WS02006232           JUNCTION     0.62     2.18     9.22     0  02:52        2.18
  WS02006234           JUNCTION     0.56     1.96     9.12     0  01:41        1.96
  WS02006235           JUNCTION     0.60     2.00     9.16     0  01:41        2.00
  WS02006238           JUNCTION     0.63     2.15     9.29     0  02:19        2.15
  WS02006239           JUNCTION     0.60     2.03     9.24     0  01:41        2.03
  WS02006240           JUNCTION     0.57     2.10     9.39     0  02:47        2.10
  WS02006242           JUNCTION     0.64     1.55     8.82     0  01:41        1.55
  WS02006243           JUNCTION     0.57     1.48     8.90     0  02:19        1.48
  WS02006245           JUNCTION     0.57     1.56     9.04     0  02:47        1.56
  WS02006247           JUNCTION     0.59     1.47     8.97     0  02:47        1.47
  WS02006248           JUNCTION     0.56     1.10     8.69     0  01:39        1.10
  WS02006249           JUNCTION     0.59     1.09     8.69     0  01:39        1.09
  WS02006251           JUNCTION     0.59     1.33     9.00     0  01:39        1.20
  WS02006252           JUNCTION     0.38     1.50     9.74     0  00:00        1.50
  WS02006256           JUNCTION     1.21     2.35     9.28     0  00:00        2.35
  WSF200               JUNCTION     0.17     0.29     5.52     0  03:16        0.29
  YS02001580           JUNCTION     0.20     1.05     9.59     0  01:46        1.04
  YS02001583           JUNCTION     0.23     1.04     9.53     0  01:46        0.82
  YS02001586           JUNCTION     0.36     1.13     9.30     0  01:46        1.13
  YS02001590           JUNCTION     0.48     1.40     9.26     0  01:46        1.40
  YS02001593           JUNCTION     0.42     1.46     9.32     0  02:35        1.46
  YS02001596           JUNCTION     0.56     1.80     9.22     0  02:35        1.80
  YS02001600           JUNCTION     0.66     1.87     9.00     0  01:46        1.87
  YS02001601           JUNCTION     0.85     2.06     8.90     0  01:45        2.06
  YS02001602           JUNCTION     0.74     1.87     8.77     0  01:46        1.87
  YS02001605           JUNCTION     0.68     1.78     8.68     0  01:53        1.78
  YS02001607           JUNCTION     0.63     1.68     8.53     0  02:35        1.65
  YS02001610           JUNCTION     0.67     1.68     8.48     0  01:50        1.68
  YS02001613           JUNCTION     0.64     1.67     8.51     0  02:07        1.67
  YS02001616           JUNCTION     0.57     1.61     8.52     0  01:57        1.61
  YS02001619           JUNCTION     0.55     1.61     8.54     0  01:58        1.61
  YS02001622           JUNCTION     0.54     1.58     8.49     0  02:07        1.58
  YS02001625           JUNCTION     0.77     1.78     8.38     0  01:51        1.78
  YS02001629           JUNCTION     0.68     1.85     8.40     0  01:53        1.85
  YS02001633           JUNCTION     0.76     2.07     8.52     0  02:01        2.07
  YS02001641           JUNCTION     0.71     2.04     8.47     0  02:19        1.96
  YS02001644           JUNCTION     0.70     1.92     8.35     0  01:54        1.92
  YS02001647           JUNCTION     0.48     1.79     8.40     0  01:59        1.78
  YS02001649           JUNCTION     0.54     2.05     8.44     0  01:59        2.05
  YS02001652           JUNCTION     0.43     2.02     8.61     0  01:59        1.94
  YS02001655           JUNCTION     0.33     1.94     8.79     0  01:59        1.83
  YS02001658           JUNCTION     0.24     1.81     8.95     0  01:59        1.67
  YS02001661           JUNCTION     0.23     1.71     9.11     0  01:59        1.54
  YS02001664           JUNCTION     0.11     1.34     9.27     0  01:59        1.16
  YS02001745           JUNCTION     0.12     1.08     8.60     0  01:59        1.06
  YS02001748           JUNCTION     0.22     1.50     8.58     0  01:55        1.43
  YS02001751           JUNCTION     0.28     1.62     8.50     0  01:53        1.58
  YS02001754           JUNCTION     0.37     1.83     8.44     0  01:59        1.80
  YS02001757           JUNCTION     0.55     2.21     8.47     0  02:35        2.21
  YS02001759           JUNCTION     0.50     2.16     8.52     0  01:59        2.11
  YS02001762           JUNCTION     0.49     2.11     8.51     0  01:59        2.07
  YS02001765           JUNCTION     0.47     2.04     8.49     0  01:59        2.02
  YS02001767           JUNCTION     0.46     1.99     8.48     0  01:59        1.97
  YS02001770           JUNCTION     0.47     1.95     8.44     0  01:58        1.95
  YS02001774           JUNCTION     0.53     2.05     8.47     0  01:52        2.00
  YS02001779           JUNCTION     0.36     1.68     8.37     0  01:52        1.68
  YS02001783           JUNCTION     0.39     1.42     7.56     0  01:51        1.28
  YS02001784           JUNCTION     0.38     1.20     7.27     0  01:51        1.15
  YS02001786           JUNCTION     0.32     0.95     6.98     0  01:51        0.89
  YS02001788           JUNCTION     0.23     0.63     6.61     0  01:59        0.63
  YS02001790           JUNCTION     0.27     0.74     6.38     0  01:59        0.72
  YS02001791           JUNCTION     0.17     0.45     5.92     0  01:59        0.43
  YS02001793           JUNCTION     0.09     0.24     5.08     0  02:12        0.24
  YS02001882           JUNCTION     0.48     1.74     8.45     0  02:01        1.74
  YS02001884           JUNCTION     0.56     1.83     8.45     0  02:01        1.83
  YS02001887           JUNCTION     0.64     1.91     8.45     0  02:01        1.91
  YS02001890           JUNCTION     0.66     1.81     8.32     0  01:51        1.81
  YS02001895           JUNCTION     0.45     1.60     8.34     0  01:51        1.57
  YS02001898           JUNCTION     0.45     1.60     8.34     0  01:51        1.57
  YS02001901           JUNCTION     0.56     1.71     8.32     0  02:19        1.71
  YS02001904           JUNCTION     0.54     1.65     8.28     0  01:51        1.64
  YS02001907           JUNCTION     0.84     1.96     8.25     0  01:51        1.96
  YS02001910           JUNCTION     0.66     2.07     8.57     0  01:52        2.07
  YS02001915           JUNCTION     0.50     2.00     8.72     0  01:52        2.00
  YS02001918           JUNCTION     0.33     1.81     8.88     0  01:51        1.81
  YS02001920           JUNCTION     0.40     2.14     9.15     0  01:52        2.14
  YS02001923           JUNCTION     0.26     2.03     9.29     0  01:52        2.03
  YS02001926           JUNCTION     0.28     1.90     9.35     0  01:52        1.90
  YS02001929           JUNCTION     0.18     1.78     9.47     0  01:51        1.78
  YS02006553           JUNCTION     0.84     2.19     8.47     0  02:35        2.19
  YS02006556           JUNCTION     0.81     2.03     8.34     0  02:01        2.03
  YS02006558           JUNCTION     0.86     2.10     8.37     0  02:01        2.10
  YS02006561           JUNCTION     0.25     1.21     7.87     0  01:51        0.96
  YS02163301           JUNCTION     0.70     1.95     8.46     0  02:01        1.95
  YS02163601           JUNCTION     0.78     2.08     8.48     0  02:19        2.06
  YS02164001           JUNCTION     0.70     2.10     8.56     0  02:35        2.10
  CC-1                 OUTFALL      0.00     0.00     0.00     0  00:00        0.00
  CC-2                 OUTFALL      0.00     0.00     0.00     0  00:00        0.00
  JK-1                 OUTFALL      0.00     0.00     0.00     0  00:00        0.00
  JK-2                 OUTFALL      0.00     0.00     0.00     0  00:00        0.00
  WSC                  OUTFALL      0.18     0.30     0.97     0  03:18        0.30
  CC-storage           STORAGE      0.58     1.48     6.98     0  02:42        1.48
  JK-storage           STORAGE      0.20     2.99     3.79     0  00:00        0.68
  
  
  *******************
  Node Inflow Summary
  *******************
  
  -------------------------------------------------------------------------------------------------
                                  Maximum  Maximum                  Lateral       Total        Flow
                                  Lateral    Total  Time of Max      Inflow      Inflow     Balance
                                   Inflow   Inflow   Occurrence      Volume      Volume       Error
  Node                 Type           LPS      LPS  days hr:min    10^6 ltr    10^6 ltr     Percent
  -------------------------------------------------------------------------------------------------
  WS02003060           JUNCTION     16.53   552.37     0  03:16       0.471        5.34       0.039
  WS02003066           JUNCTION      0.00   535.82     0  03:16           0        4.87       0.030
  WS02003067           JUNCTION      0.00   535.81     0  03:15           0        4.88       0.084
  WS02003069           JUNCTION      0.32   552.67     0  03:16     0.00912        5.35       0.073
  WS02003072           JUNCTION      0.00   552.60     0  03:17           0        5.34       0.134
  WS02003073           JUNCTION      1.82   554.36     0  03:17      0.0519        5.39       0.102
  WS02004401           JUNCTION      0.00   539.58     0  03:04           0        4.98       0.204
  WS02004402           JUNCTION      0.00   537.31     0  03:04           0        4.97       0.207
  WS02004403           JUNCTION      0.00   537.36     0  03:04           0        4.96       0.203
  WS02004404           JUNCTION      0.16   536.34     0  03:11     0.00462        4.95       0.176
  WS02004405           JUNCTION      0.04   536.36     0  03:11     0.00109        4.94       0.244
  WS02004406           JUNCTION      0.00   536.24     0  03:11           0        4.93       0.422
  WS02004407           JUNCTION      0.00   536.16     0  03:11           0        4.91       0.020
  WS02004409           JUNCTION      0.00   536.07     0  03:11           0        4.91       0.052
  WS02004410           JUNCTION      0.00   535.95     0  03:15           0        4.91       0.089
  WS02004411           JUNCTION      0.00   535.93     0  03:15           0         4.9       0.113
  WS02004412           JUNCTION      0.00   535.87     0  03:15           0         4.9       0.150
  WS02004413           JUNCTION      0.00   535.87     0  03:15           0        4.89       0.279
  WS02006109           JUNCTION      1.23   585.32     0  02:47      0.0351        5.03       0.211
  WS02006110           JUNCTION      0.00   588.77     0  02:47           0        5.01       0.104
  WS02006111           JUNCTION      0.00   567.33     0  01:42           0        5.01       0.007
  WS02006112           JUNCTION      0.00   545.09     0  01:42           0        5.01       0.401
  WS02006113           JUNCTION      0.00   579.84     0  02:47           0        5.01       0.047
  WS02006115           JUNCTION      0.00   551.96     0  03:17           0        4.99       0.139
  WS02006116           JUNCTION      0.00   540.60     0  02:58           0        4.98       0.046
  WS02006228           JUNCTION      0.00   576.64     0  02:47           0        4.99       0.087
  WS02006229           JUNCTION      0.00   573.26     0  02:47           0           5       0.120
  WS02006230           JUNCTION     10.28   601.22     0  01:41       0.293           5       0.023
  WS02006231           JUNCTION      0.00   602.18     0  03:21           0         4.7      -0.137
  WS02006232           JUNCTION      0.00   600.08     0  03:21           0        4.72       0.399
  WS02006234           JUNCTION      0.00   588.40     0  03:21           0         4.7      -0.536
  WS02006235           JUNCTION      0.00   622.65     0  01:37           0        4.84       0.441
  WS02006238           JUNCTION      0.00   423.93     0  03:18           0        3.59       0.022
  WS02006239           JUNCTION      0.00   423.77     0  03:46           0        3.51       0.001
  WS02006240           JUNCTION      0.00   423.73     0  03:46           0        3.45       0.042
  WS02006242           JUNCTION      0.00   423.29     0  03:38           0        3.43       0.005
  WS02006243           JUNCTION      0.00   424.55     0  03:38           0        3.41      -0.074
  WS02006245           JUNCTION      0.00   426.00     0  03:38           0        3.41       0.165
  WS02006247           JUNCTION      0.00   427.19     0  03:38           0        3.41      -0.016
  WS02006248           JUNCTION      0.00   427.67     0  03:38           0        3.42       0.092
  WS02006249           JUNCTION      0.00   466.73     0  01:34           0        3.69       0.230
  WS02006251           JUNCTION      0.08   411.31     0  02:47     0.00219        3.69      -0.049
  WS02006252           JUNCTION      0.00   400.00     0  00:00           0        3.69       0.010
  WS02006256           JUNCTION      0.00   306.55     0  01:56           0        1.96      -3.510
  WSF200               JUNCTION      0.00   535.83     0  03:16           0        4.87       0.008
  YS02001580           JUNCTION      0.00    76.91     0  01:46           0     0.00415       1.235
  YS02001583           JUNCTION      0.00   131.23     0  01:46           0      0.0155      -2.969
  YS02001586           JUNCTION   1348.34  1348.44     0  02:03        2.85        2.86       0.041
  YS02001590           JUNCTION      0.00   330.30     0  02:35           0        1.72      -0.025
  YS02001593           JUNCTION      0.00   319.16     0  02:35           0        1.72       0.019
  YS02001596           JUNCTION      0.00   317.96     0  02:22           0        1.72       0.005
  YS02001600           JUNCTION      0.00   318.10     0  02:10           0        1.72       0.023
  YS02001601           JUNCTION   2364.61  2682.30     0  02:02        3.83        5.54       0.016
  YS02001602           JUNCTION      0.00   502.34     0  01:45           0        2.76       0.019
  YS02001605           JUNCTION      0.00   502.78     0  01:45           0        2.59       0.025
  YS02001607           JUNCTION      0.00   502.45     0  01:45           0        2.59       0.084
  YS02001610           JUNCTION      0.00   952.87     0  02:04           0        3.32       0.077
  YS02001613           JUNCTION      0.00   616.63     0  02:06           0        2.58       0.058
  YS02001616           JUNCTION      0.00   616.52     0  02:04           0        2.58       0.021
  YS02001619           JUNCTION   2407.28  2407.28     0  02:03        4.58        6.43       0.003
  YS02001622           JUNCTION      0.00  1053.93     0  02:09           0        5.38       0.002
  YS02001625           JUNCTION      0.00  1505.41     0  02:10           0        5.84       0.159
  YS02001629           JUNCTION      0.00   976.30     0  02:02           0        4.48       0.022
  YS02001633           JUNCTION   1780.63  1780.63     0  02:02        2.82        6.59       0.055
  YS02001641           JUNCTION      0.00  1376.33     0  01:51           0        5.88       0.053
  YS02001644           JUNCTION   1591.42  2800.77     0  02:02        2.45         8.4       0.040
  YS02001647           JUNCTION      0.00  1781.13     0  01:51           0        6.95       0.010
  YS02001649           JUNCTION      0.00  2052.76     0  01:51           0        9.14       0.009
  YS02001652           JUNCTION      0.00  1557.99     0  02:01           0        2.27      -0.067
  YS02001655           JUNCTION      0.15  1556.13     0  02:01     0.00439        2.26      -0.027
  YS02001658           JUNCTION      0.00  1553.99     0  02:01           0        2.26       0.000
  YS02001661           JUNCTION      0.00  1553.68     0  02:01           0        2.26      -0.009
  YS02001664           JUNCTION   1552.64  1552.64     0  02:02        2.26        2.26      -0.008
  YS02001745           JUNCTION    978.53   978.53     0  02:01        1.35        1.35       0.091
  YS02001748           JUNCTION      0.04   987.55     0  02:01     0.00128        1.35      -0.127
  YS02001751           JUNCTION      0.01   987.62     0  02:01    0.000313        1.35       0.031
  YS02001754           JUNCTION      0.26   988.11     0  02:01     0.00741        1.36      -0.081
  YS02001757           JUNCTION      0.00  3686.28     0  02:01           0        14.3       0.044
  YS02001759           JUNCTION   1362.30  1557.02     0  02:01        1.87        3.89      -0.005
  YS02001762           JUNCTION      0.00   794.87     0  02:12           0        2.02       0.009
  YS02001765           JUNCTION      0.00   794.53     0  02:12           0        2.02       0.005
  YS02001767           JUNCTION      0.54   794.04     0  02:12      0.0152        2.02       0.015
  YS02001770           JUNCTION   1924.13  1924.13     0  02:02        2.83        2.87      -0.004
  YS02001774           JUNCTION      0.00   851.85     0  02:04           0       0.652       0.194
  YS02001779           JUNCTION      0.01   851.63     0  02:04    0.000142       0.608      -0.105
  YS02001783           JUNCTION      0.00  1190.37     0  02:01           0        5.21       0.006
  YS02001784           JUNCTION      1.06  1191.28     0  02:01      0.0302        5.24       0.010
  YS02001786           JUNCTION      0.06  1192.01     0  02:01      0.0016        5.24       0.014
  YS02001788           JUNCTION      0.07  1193.67     0  02:01     0.00202        5.24       0.005
  YS02001790           JUNCTION      0.15  1193.93     0  02:02     0.00442        5.24       0.017
  YS02001791           JUNCTION      0.00  1314.98     0  01:59           0        5.24      -0.024
  YS02001793           JUNCTION      0.00  1256.61     0  02:00           0        5.24      -0.014
  YS02001882           JUNCTION      0.00    32.63     0  01:48           0      0.0133       4.503
  YS02001884           JUNCTION      0.00    47.19     0  01:47           0      0.0496       5.410
  YS02001887           JUNCTION   1470.89  1473.38     0  02:01        1.93        1.96       0.221
  YS02001890           JUNCTION      0.00  1473.85     0  02:01           0        1.92       0.263
  YS02001895           JUNCTION      0.00   518.76     0  02:07           0        1.48       0.130
  YS02001898           JUNCTION      0.00   519.02     0  02:07           0        1.48      -0.002
  YS02001901           JUNCTION      0.00   518.68     0  02:07           0        1.48       0.237
  YS02001904           JUNCTION      0.00   518.46     0  02:07           0        1.49       0.186
  YS02001907           JUNCTION      0.00  3295.17     0  02:02           0        5.79       0.309
  YS02001910           JUNCTION      0.00  1993.14     0  02:05           0        4.04       0.180
  YS02001915           JUNCTION   1715.19  2552.49     0  02:02        2.69        4.22       0.037
  YS02001918           JUNCTION      0.00   839.51     0  02:02           0        1.55       0.014
  YS02001920           JUNCTION      2.87   838.82     0  02:02      0.0818        1.53       0.074
  YS02001923           JUNCTION      0.04   834.77     0  02:02     0.00107        1.44      -0.006
  YS02001926           JUNCTION      0.05   834.34     0  02:02     0.00149        1.42      -0.009
  YS02001929           JUNCTION    833.74   833.74     0  02:03        1.42        1.42      -0.021
  YS02006553           JUNCTION      0.00   796.67     0  02:26           0        2.97       0.403
  YS02006556           JUNCTION      0.00   797.24     0  02:25           0        2.98       0.269
  YS02006558           JUNCTION   1968.58  1968.58     0  02:02        2.84        5.51       0.063
  YS02006561           JUNCTION      0.00  1190.01     0  02:01           0        5.21       0.001
  YS02163301           JUNCTION      0.00   975.33     0  02:02           0        4.48       0.039
  YS02163601           JUNCTION      0.11  1376.60     0  01:50     0.00313        5.88       0.089
  YS02164001           JUNCTION      0.00  1375.94     0  01:51           0        5.88       0.048
  CC-1                 OUTFALL       0.00   683.00     0  00:00           0        6.14       0.000
  CC-2                 OUTFALL       0.00   683.00     0  00:00           0        6.14       0.000
  JK-1                 OUTFALL       0.00  1000.00     0  00:00           0        1.73       0.000
  JK-2                 OUTFALL       0.00  1000.00     0  00:00           0        1.73       0.000
  WSC                  OUTFALL       0.00   554.29     0  03:18           0        5.38       0.000
  CC-storage           STORAGE       0.00  3685.87     0  02:01           0        16.5      -0.288
  JK-storage           STORAGE       0.00  1351.25     0  02:15           0         5.4      -0.364
  
  
  **********************
  Node Surcharge Summary
  **********************
  
  Surcharging occurs when water rises above the top of the highest conduit.
  ---------------------------------------------------------------------
                                               Max. Height   Min. Depth
                                   Hours       Above Crown    Below Rim
  Node                 Type      Surcharged         Meters       Meters
  ---------------------------------------------------------------------
  WS02006109           JUNCTION        2.26          0.766        1.054
  WS02006110           JUNCTION        0.53          0.893        0.957
  WS02006112           JUNCTION        1.49          0.112        1.568
  WS02006228           JUNCTION        2.25          0.522        1.678
  WS02006229           JUNCTION        2.28          0.604        1.846
  WS02006230           JUNCTION        0.62          0.503        1.067
  WS02006231           JUNCTION        1.28          1.499        0.031
  WS02006232           JUNCTION        2.35          1.480        0.000
  WS02006234           JUNCTION        1.81          1.240        0.000
  WS02006235           JUNCTION        2.02          1.290        0.000
  WS02006238           JUNCTION        2.21          1.430        0.000
  WS02006239           JUNCTION        2.20          1.290        0.000
  WS02006240           JUNCTION        2.28          1.390        0.000
  WS02006242           JUNCTION        2.38          0.820        0.000
  WS02006243           JUNCTION        2.29          0.770        0.000
  WS02006245           JUNCTION        2.28          0.850        0.000
  WS02006247           JUNCTION        2.31          0.760        0.000
  WS02006248           JUNCTION        2.27          0.380        0.000
  WS02006249           JUNCTION        2.30          0.390        0.000
  WS02006251           JUNCTION        1.69          0.299        0.881
  WS02006252           JUNCTION        2.56          1.100        0.000
  WS02006256           JUNCTION        5.66          2.050        0.000
  YS02001580           JUNCTION        0.96          0.450        0.000
  YS02001583           JUNCTION        0.97          0.398        0.102
  YS02001586           JUNCTION        1.08          0.510        0.000
  YS02001590           JUNCTION        1.17          0.750        0.000
  YS02001593           JUNCTION        1.17          0.840        0.000
  YS02001596           JUNCTION        1.31          1.070        0.000
  YS02001600           JUNCTION        1.46          1.190        0.000
  YS02001601           JUNCTION        1.75          1.440        0.000
  YS02001602           JUNCTION        1.66          1.270        0.000
  YS02001605           JUNCTION        1.61          1.180        0.000
  YS02001607           JUNCTION        1.12          0.680        0.000
  YS02001610           JUNCTION        1.15          0.680        0.000
  YS02001613           JUNCTION        1.11          0.673        0.027
  YS02001616           JUNCTION        1.06          0.610        0.000
  YS02001619           JUNCTION        1.04          0.610        0.000
  YS02001622           JUNCTION        1.03          0.585        0.035
  YS02001625           JUNCTION        1.26          0.780        0.000
  YS02001629           JUNCTION        0.96          0.470        0.000
  YS02001633           JUNCTION        1.28          1.050        0.010
  YS02001641           JUNCTION        1.18          1.035        0.065
  YS02001644           JUNCTION        1.12          0.920        0.000
  YS02001647           JUNCTION        0.83          0.792        0.108
  YS02001649           JUNCTION        0.97          1.050        0.000
  YS02001652           JUNCTION        0.72          0.987        0.143
  YS02001655           JUNCTION        0.51          0.936        0.264
  YS02001658           JUNCTION        0.35          0.812        0.488
  YS02001661           JUNCTION        0.18          0.640        0.750
  YS02001664           JUNCTION        0.04          0.340        0.970
  YS02001745           JUNCTION        0.02          0.079        1.271
  YS02001748           JUNCTION        0.23          0.423        0.767
  YS02001751           JUNCTION        0.40          0.625        0.575
  YS02001754           JUNCTION        0.55          0.784        0.366
  YS02001757           JUNCTION        1.03          1.210        0.000
  YS02001759           JUNCTION        0.91          1.160        0.050
  YS02001762           JUNCTION        0.86          1.107        0.043
  YS02001765           JUNCTION        0.80          1.043        0.057
  YS02001767           JUNCTION        0.76          0.991        0.039
  YS02001770           JUNCTION        0.73          0.920        0.000
  YS02001774           JUNCTION        0.84          1.050        0.000
  YS02001779           JUNCTION        0.56          0.680        0.000
  YS02001783           JUNCTION        0.80          0.615        0.985
  YS02001784           JUNCTION        0.77          0.402        1.088
  YS02001786           JUNCTION        0.64          0.147        1.283
  YS02001882           JUNCTION        0.73          0.736        0.094
  YS02001884           JUNCTION        0.74          0.774        0.096
  YS02001887           JUNCTION        0.78          0.862        0.088
  YS02001890           JUNCTION        0.80          0.760        0.000
  YS02001895           JUNCTION        0.71          0.596        0.154
  YS02001898           JUNCTION        0.70          0.572        0.168
  YS02001901           JUNCTION        0.77          0.711        0.159
  YS02001904           JUNCTION        0.76          0.654        0.196
  YS02001907           JUNCTION        1.08          0.950        0.000
  YS02001910           JUNCTION        0.84          1.065        0.035
  YS02001915           JUNCTION        0.73          1.000        0.000
  YS02001918           JUNCTION        0.62          0.810        0.000
  YS02001920           JUNCTION        0.64          1.140        0.000
  YS02001923           JUNCTION        0.28          0.820        0.000
  YS02001926           JUNCTION        0.32          0.900        0.000
  YS02001929           JUNCTION        0.17          0.780        0.000
  YS02006553           JUNCTION        1.10          1.190        0.000
  YS02006556           JUNCTION        0.96          0.986        0.364
  YS02006558           JUNCTION        0.94          0.999        0.401
  YS02006561           JUNCTION        0.59          0.411        0.739
  YS02163301           JUNCTION        1.25          0.946        0.084
  YS02163601           JUNCTION        1.31          1.080        0.000
  YS02164001           JUNCTION        1.19          1.100        0.000
  
  
  *********************
  Node Flooding Summary
  *********************
  
  Flooding refers to all water that overflows a node, whether it ponds or not.
  --------------------------------------------------------------------------
                                                             Total   Maximum
                                 Maximum   Time of Max       Flood    Ponded
                        Hours       Rate    Occurrence      Volume     Depth
  Node                 Flooded       LPS   days hr:min    10^6 ltr    Meters
  --------------------------------------------------------------------------
  WS02006232              0.01     14.01      0  02:52       0.000     0.000
  WS02006234              0.01    139.46      0  01:41       0.000     0.000
  WS02006235              0.01     41.48      0  01:41       0.000     0.000
  WS02006238              0.01     14.18      0  03:21       0.000     0.000
  WS02006239              0.01      5.85      0  01:41       0.000     0.000
  WS02006240              0.01      1.50      0  02:47       0.000     0.000
  WS02006242              0.02     25.83      0  02:26       0.001     0.000
  WS02006243              0.01      0.41      0  02:47       0.000     0.000
  WS02006245              0.01      1.06      0  02:47       0.000     0.000
  WS02006247              0.01      0.10      0  02:47       0.000     0.000
  WS02006248              0.25     36.16      0  01:39       0.012     0.000
  WS02006249              1.50     86.54      0  02:47       0.261     0.000
  WS02006252              0.01    245.63      0  00:00       0.000     0.000
  WS02006256              1.81    293.19      0  00:00       0.703     0.000
  YS02001580              0.01     31.51      0  01:46       0.000     0.000
  YS02001586              0.79   1030.80      0  02:03       1.131     0.000
  YS02001590              0.01     15.89      0  02:35       0.000     0.000
  YS02001593              0.01      5.54      0  02:35       0.000     0.000
  YS02001596              0.01      0.10      0  02:35       0.000     0.000
  YS02001600              0.01     45.95      0  02:35       0.000     0.000
  YS02001601              0.99   2283.92      0  02:02       2.784     0.000
  YS02001602              0.79     61.96      0  02:23       0.164     0.000
  YS02001605              0.01      6.34      0  02:35       0.000     0.000
  YS02001607              0.01     27.48      0  02:35       0.000     0.000
  YS02001610              0.72    952.66      0  02:04       1.464     0.000
  YS02001616              0.13      9.00      0  02:19       0.000     0.000
  YS02001619              0.21    742.61      0  02:03       0.317     0.000
  YS02001625              0.64   1505.21      0  02:10       2.050     0.000
  YS02001629              0.29    533.99      0  02:02       0.263     0.000
  YS02001644              0.33   2800.10      0  02:02       1.516     0.000
  YS02001649              0.01     39.46      0  01:59       0.000     0.000
  YS02001757              0.01      1.44      0  02:35       0.000     0.000
  YS02001770              0.13    878.76      0  02:02       0.229     0.000
  YS02001774              0.01     59.23      0  01:52       0.000     0.000
  YS02001779              0.29    851.39      0  02:05       0.588     0.000
  YS02001890              0.33    957.84      0  02:01       0.435     0.000
  YS02001907              0.56   3294.79      0  02:02       3.092     0.000
  YS02001915              0.13    560.08      0  02:02       0.151     0.000
  YS02001918              0.01    107.36      0  01:52       0.001     0.000
  YS02001920              0.01     32.00      0  01:52       0.000     0.000
  YS02001923              0.01     53.44      0  01:52       0.000     0.000
  YS02001926              0.01     43.87      0  01:52       0.000     0.000
  YS02001929              0.01    238.09      0  01:51       0.001     0.000
  YS02006553              0.01      0.90      0  02:35       0.000     0.000
  YS02163601              0.01     10.01      0  02:19       0.000     0.000
  YS02164001              0.01      0.75      0  02:35       0.000     0.000
  
  
  **********************
  Storage Volume Summary
  **********************
  
  ------------------------------------------------------------------------------------------------
                         Average    Avg   Evap  Exfil     Maximum    Max    Time of Max    Maximum
                          Volume   Pcnt   Pcnt   Pcnt      Volume   Pcnt     Occurrence    Outflow
  Storage Unit           1000 m³   Full   Loss   Loss     1000 m³   Full    days hr:min        LPS
  ------------------------------------------------------------------------------------------------
  CC-storage               1.615   25.2    0.0    0.0       4.117   64.2       0  02:42    1783.53
  JK-storage               0.010    3.5    0.0    0.0       0.150   51.6       0  00:00    2300.00
  
  
  ***********************
  Outfall Loading Summary
  ***********************
  
  -----------------------------------------------------------
                         Flow       Avg       Max       Total
                         Freq      Flow      Flow      Volume
  Outfall Node           Pcnt       LPS       LPS    10^6 ltr
  -----------------------------------------------------------
  CC-1                  54.99    683.00    683.00       6.137
  CC-2                  54.99    683.00    683.00       6.137
  JK-1                  11.02   1000.00   1000.00       1.729
  JK-2                  11.02   1000.00   1000.00       1.729
  WSC                   99.94    273.87    554.29       5.384
  -----------------------------------------------------------
  System                46.39   3639.87   3904.52      21.116
  
  
  ********************
  Link Flow Summary
  ********************
  
  -----------------------------------------------------------------------------
                                 Maximum  Time of Max   Maximum    Max/    Max/
                                  |Flow|   Occurrence   |Veloc|    Full    Full
  Link                 Type          LPS  days hr:min     m/sec    Flow   Depth
  -----------------------------------------------------------------------------
  1                    CONDUIT    554.29     0  03:18      2.83    0.19    0.30
  WS02003060WS02003069 CONDUIT    552.35     0  03:16      1.64    0.22    0.34
  WS02003066WSF200     CONDUIT    535.83     0  03:16      2.85    0.09    0.22
  WS02003067WS02003066 CONDUIT    535.82     0  03:16      1.21    0.17    0.42
  WS02003069WS02003072 CONDUIT    552.60     0  03:17      1.37    0.27    0.39
  WS02003072WS02003073 CONDUIT    552.54     0  03:17      1.43    1.19    0.37
  WS02004401WS02004402 CONDUIT    537.31     0  03:04      1.22    0.65    0.86
  WS02004402WS02004403 CONDUIT    537.36     0  03:04      1.24    0.77    0.88
  WS02004403WS02004404 CONDUIT    536.18     0  03:11      1.24    0.39    0.93
  WS02004404WS02004405 CONDUIT    536.32     0  03:11      1.45    5.25    0.96
  WS02004405WS02004406 CONDUIT    536.24     0  03:11      1.46    1.06    0.96
  WS02004406WS02004407 CONDUIT    536.16     0  03:11      1.04    0.24    0.63
  WS02004407WS02004409 CONDUIT    536.07     0  03:11      1.59    0.19    0.48
  WS02004409WS02004410 CONDUIT    535.95     0  03:15      1.06    0.69    0.67
  WS02004410WS02004411 CONDUIT    535.93     0  03:15      1.13    0.73    0.69
  WS02004411WS02004412 CONDUIT    535.87     0  03:15      1.20    0.76    0.69
  WS02004412WS02004413 CONDUIT    535.87     0  03:15      1.22    0.36    0.78
  WS02004413WS02003067 CONDUIT    535.81     0  03:15      1.11    0.23    0.59
  WS02006109WS02006110 CONDUIT    588.77     0  02:47      1.17    1.13    1.00
  WS02006110WS02006113 CONDUIT    579.84     0  02:47      1.39    0.53    0.79
  WS02006111WS02006112 CONDUIT    545.09     0  01:42      1.95    0.26    0.67
  WS02006112WS02006115 CONDUIT    551.96     0  03:17      0.86    0.33    0.87
  WS02006113WS02006111 CONDUIT    567.33     0  01:42      2.48    0.68    0.46
  WS02006115WS02006116 CONDUIT    540.60     0  02:58      1.29    0.69    0.76
  WS02006116WS02004401 CONDUIT    539.58     0  03:04      1.21    0.74    0.84
  WS02006228WS02006109 CONDUIT    584.09     0  02:47      1.16    2.55    1.00
  WS02006229WS02006228 CONDUIT    576.64     0  02:47      1.15    1.91    1.00
  WS02006230WS02006229 CONDUIT    573.26     0  02:47      1.49   12.76    1.00
  WS02006231WS02006230 CONDUIT    590.94     0  01:41      1.61    8.96    1.00
  WS02006232WS02006231 CONDUIT    602.18     0  03:21      1.57    1.26    1.00
  WS02006234WS02006232 CONDUIT    600.08     0  03:21      1.56    1.21    1.00
  WS02006235WS02006234 CONDUIT    588.40     0  03:21      1.54    6.21    1.00
  WS02006238WS02006235 CONDUIT    436.35     0  03:14      1.45    0.97    1.00
  WS02006239WS02006238 CONDUIT    423.93     0  03:18      1.11    1.36    1.00
  WS02006240WS02006239 CONDUIT    423.77     0  03:46      1.24    1.33    1.00
  WS02006242WS02006240 CONDUIT    423.73     0  03:46      1.16    1.68    1.00
  WS02006243WS02006242 CONDUIT    423.29     0  03:38      1.38    0.90    1.00
  WS02006245WS02006243 CONDUIT    424.55     0  03:38      1.44    1.26    1.00
  WS02006247WS02006245 CONDUIT    426.00     0  03:38      1.43    3.38    1.00
  WS02006248WS02006247 CONDUIT    427.19     0  03:38      1.42    0.93    1.00
  WS02006249WS02006248 CONDUIT    427.67     0  03:38      1.39    2.34    1.00
  WS02006251WS02006249 CONDUIT    466.73     0  01:34      1.99    1.35    1.00
  WS02006252WS02006251 CONDUIT    411.23     0  02:47      4.89    1.51    1.00
  WS02006256WS02006235 CONDUIT    288.91     0  00:00      4.23    3.06    1.00
  WSF200WS02003060     CONDUIT    535.84     0  03:16      2.06    0.12    0.28
  YS02001580YS02001583 CONDUIT     76.91     0  01:46      0.56    0.30    1.00
  YS02001583YS02001586 CONDUIT    131.23     0  01:46      0.54    0.20    1.00
  YS02001586YS02001590 CONDUIT    330.30     0  02:35      1.28    0.58    1.00
  YS02001590YS02001593 CONDUIT    319.16     0  02:35      1.13    2.00    1.00
  YS02001593YS02001596 CONDUIT    317.96     0  02:22      1.77    0.50    1.00
  YS02001596YS02001600 CONDUIT    318.10     0  02:10      1.28    0.62    1.00
  YS02001600YS02001601 CONDUIT    318.58     0  02:19      1.13    0.55    1.00
  YS02001601YS02001602 CONDUIT    502.34     0  01:45      1.78    1.81    1.00
  YS02001602YS02001605 CONDUIT    502.78     0  01:45      1.78   10.64    1.00
  YS02001605YS02001607 CONDUIT    502.45     0  01:45      1.78    2.76    1.00
  YS02001607YS02001610 CONDUIT    499.85     0  01:45      0.64    0.48    1.00
  YS02001610YS02001613 CONDUIT    616.87     0  02:04      0.79    0.71    1.00
  YS02001613YS02001616 CONDUIT    616.63     0  02:06      0.79    0.53    1.00
  YS02001616YS02001619 CONDUIT    616.52     0  02:04      0.78    1.07    1.00
  YS02001619YS02001622 CONDUIT   1053.93     0  02:09      1.34    1.55    1.00
  YS02001622YS02001625 CONDUIT   1053.66     0  02:02      1.34    0.56    1.00
  YS02001625YS02001629 CONDUIT    931.49     0  01:50      1.19    0.44    1.00
  YS02001629YS02163301 CONDUIT    976.30     0  02:02      1.24    1.20    1.00
  YS02001633YS02163601 CONDUIT   1376.49     0  01:50      1.75    1.44    1.00
  YS02001641YS02001644 CONDUIT   1375.07     0  01:51      1.75    4.45    1.00
  YS02001644YS02001647 CONDUIT   1781.13     0  01:51      2.27    1.05    1.00
  YS02001647YS02001649 CONDUIT   1781.83     0  01:51      2.34    0.94    1.00
  YS02001649YS02001757 CONDUIT   2049.60     0  01:51      2.61    1.24    1.00
  YS02001652YS02001649 CONDUIT   1559.69     0  02:01      1.99    0.77    1.00
  YS02001655YS02001652 CONDUIT   1557.99     0  02:01      1.98    0.76    1.00
  YS02001658YS02001655 CONDUIT   1555.98     0  02:01      1.98    0.66    1.00
  YS02001661YS02001658 CONDUIT   1553.99     0  02:01      2.30    0.61    1.00
  YS02001664YS02001661 CONDUIT   1553.68     0  02:01      2.30    0.49    1.00
  YS02001745YS02001748 CONDUIT    987.50     0  02:01      2.16    0.38    1.00
  YS02001748YS02001751 CONDUIT    987.60     0  02:01      1.66    0.50    1.00
  YS02001751YS02001754 CONDUIT    987.85     0  02:01      1.41    0.48    1.00
  YS02001754YS02001757 CONDUIT    988.23     0  02:01      1.26    0.40    1.00
  YS02001757CaochengTiaoxuchi CONDUIT   3685.87     0  02:01      5.66    1.60    1.00
  YS02001759YS02001757 CONDUIT   1557.56     0  02:01      1.98    1.11    1.00
  YS02001762YS02001759 CONDUIT    795.45     0  02:12      1.01    0.92    1.00
  YS02001765YS02001762 CONDUIT    794.87     0  02:12      1.01    0.75    1.00
  YS02001767YS02001765 CONDUIT    794.53     0  02:12      1.01    1.00    1.00
  YS02001770YS02001767 CONDUIT    793.51     0  02:12      1.01    3.14    1.00
  YS02001774YS02001770 CONDUIT    851.85     0  02:04      1.08    0.54    1.00
  YS02001779YS02001774 CONDUIT    851.62     0  02:04      1.08    0.43    1.00
  YS02001783YS02001784 CONDUIT   1190.22     0  02:01      2.37    1.64    1.00
  YS02001784YS02001785 CONDUIT   1191.95     0  02:01      2.37    2.77    1.00
  YS02001786YS02001788 CONDUIT   1193.59     0  02:01      2.53    2.30    0.89
  YS02001788YS02001790 CONDUIT   1193.77     0  02:02      2.74    0.88    0.85
  YS02001790YS02001791 CONDUIT   1314.98     0  01:59      3.44    1.43    0.71
  YS02001791YS02001793 CONDUIT   1256.61     0  02:00      6.78    0.54    0.42
  YS02001793JiankangQianchi CONDUIT   1351.25     0  02:15     14.75    0.11    0.50
  YS02001882YS02001884 CONDUIT     32.63     0  01:48      0.17    0.04    1.00
  YS02001884YS02001887 CONDUIT     47.19     0  01:47      0.13    0.06    1.00
  YS02001887YS02001890 CONDUIT   1473.85     0  02:01      1.88    2.52    1.00
  YS02001890YS02001895 CONDUIT    518.76     0  02:07      0.66    0.24    1.00
  YS02001895YS02001898 CONDUIT    519.02     0  02:07      0.66    0.90    1.00
  YS02001898YS02001901 CONDUIT    518.68     0  02:07      0.66    0.33    1.00
  YS02001901YS02001904 CONDUIT    518.46     0  02:07      0.66    0.80    1.00
  YS02001904YS02001907 CONDUIT    518.76     0  02:08      0.66    0.18    1.00
  YS02001907YS02006553 CONDUIT    796.67     0  02:26      0.89    0.94    1.00
  YS02001910YS02001907 CONDUIT   1993.01     0  02:05      2.54    1.12    1.00
  YS02001915YS02001910 CONDUIT   1993.14     0  02:05      2.54    0.99    1.00
  YS02001918YS02001915 CONDUIT    840.22     0  02:02      1.07    0.46    1.00
  YS02001920YS02001918 CONDUIT    839.51     0  02:02      1.07    0.81    1.00
  YS02001923YS02001920 CONDUIT    835.95     0  02:02      1.06    0.38    1.00
  YS02001926YS02001923 CONDUIT    834.73     0  02:02      1.06    1.19    1.00
  YS02001929YS02001926 CONDUIT    834.28     0  02:02      1.08    0.40    1.00
  YS02006553YS02006556 CONDUIT    797.24     0  02:25      1.02    0.68    1.00
  YS02006556YS02006558 CONDUIT    797.98     0  02:26      1.02    0.63    1.00
  YS02006558YS02006561 CONDUIT   1190.01     0  02:01      4.21    2.63    1.00
  YS02006561YS02001783 CONDUIT   1190.37     0  02:01      2.37    0.62    1.00
  YS02163301YS02001633 CONDUIT    975.33     0  02:02      1.24    0.92    1.00
  YS02163601YS02164001 CONDUIT   1375.94     0  01:51      1.75    1.22    1.00
  YS02164001YS02001641 CONDUIT   1376.33     0  01:51      1.75    1.88    1.00
  CC-R1                PUMP       683.00     0  00:00              1.00
  CC-R2                PUMP       683.00     0  00:00              1.00
  CC-S1                PUMP       200.00     0  00:00              1.00
  CC-S2                PUMP       200.00     0  00:00              1.00
  JK-R1                PUMP      1000.00     0  00:00              1.00
  JK-R2                PUMP      1000.00     0  00:00              1.00
  JK-S                 PUMP       300.00     0  00:00              1.00
  
  
  ***************************
  Flow Classification Summary
  ***************************
  
  -------------------------------------------------------------------------------------
                      Adjusted    ---------- Fraction of Time in Flow Class ---------- 
                       /Actual         Up    Down  Sub   Sup   Up    Down  Norm  Inlet 
  Conduit               Length    Dry  Dry   Dry   Crit  Crit  Crit  Crit  Ltd   Ctrl  
  -------------------------------------------------------------------------------------
  1                       1.00   0.00  0.00  0.00  0.00  1.00  0.00  0.00  0.35  0.00
  WS02003060WS02003069    1.00   0.00  0.00  0.00  0.98  0.02  0.00  0.00  0.70  0.00
  WS02003066WSF200        1.00   0.05  0.00  0.00  0.00  0.95  0.00  0.00  0.80  0.00
  WS02003067WS02003066    1.00   0.05  0.00  0.00  0.95  0.00  0.00  0.00  0.00  0.00
  WS02003069WS02003072    1.00   0.00  0.00  0.00  0.99  0.01  0.00  0.00  0.70  0.00
  WS02003072WS02003073    1.00   0.00  0.00  0.00  0.00  0.00  0.00  1.00  0.00  0.00
  WS02004401WS02004402    1.00   0.02  0.00  0.00  0.98  0.00  0.00  0.00  0.00  0.00
  WS02004402WS02004403    1.00   0.02  0.00  0.00  0.98  0.00  0.00  0.00  0.00  0.00
  WS02004403WS02004404    1.00   0.00  0.03  0.00  0.97  0.00  0.00  0.00  0.00  0.00
  WS02004404WS02004405    1.00   0.00  0.00  0.00  1.00  0.00  0.00  0.00  0.01  0.00
  WS02004405WS02004406    1.00   0.00  0.00  0.00  1.00  0.00  0.00  0.00  0.00  0.00
  WS02004406WS02004407    1.00   0.00  0.03  0.00  0.97  0.00  0.00  0.00  0.00  0.00
  WS02004407WS02004409    1.00   0.03  0.00  0.00  0.95  0.01  0.00  0.00  0.96  0.00
  WS02004409WS02004410    1.00   0.03  0.00  0.00  0.96  0.00  0.00  0.00  0.00  0.00
  WS02004410WS02004411    1.00   0.04  0.00  0.00  0.96  0.00  0.00  0.00  0.00  0.00
  WS02004411WS02004412    1.00   0.04  0.00  0.00  0.96  0.00  0.00  0.00  0.00  0.00
  WS02004412WS02004413    1.00   0.04  0.00  0.00  0.96  0.00  0.00  0.00  0.00  0.00
  WS02004413WS02003067    1.00   0.04  0.01  0.00  0.00  0.00  0.95  0.00  0.00  0.00
  WS02006109WS02006110    1.00   0.00  0.01  0.00  0.98  0.00  0.01  0.00  0.00  0.00
  WS02006110WS02006113    1.00   0.01  0.01  0.00  0.98  0.00  0.00  0.00  0.00  0.00
  WS02006111WS02006112    1.00   0.02  0.00  0.00  0.98  0.00  0.00  0.00  0.98  0.00
  WS02006112WS02006115    1.00   0.02  0.00  0.00  0.97  0.00  0.00  0.00  0.00  0.00
  WS02006113WS02006111    1.00   0.02  0.00  0.00  0.00  0.98  0.00  0.00  0.12  0.00
  WS02006115WS02006116    1.00   0.02  0.00  0.00  0.97  0.00  0.00  0.01  0.00  0.00
  WS02006116WS02004401    1.00   0.02  0.00  0.00  0.98  0.00  0.00  0.00  0.00  0.00
  WS02006228WS02006109    1.00   0.00  0.00  0.00  1.00  0.00  0.00  0.00  0.00  0.00
  WS02006229WS02006228    1.00   0.00  0.00  0.00  0.99  0.00  0.00  0.01  0.00  0.00
  WS02006230WS02006229    1.00   0.00  0.00  0.00  0.99  0.00  0.00  0.01  0.02  0.00
  WS02006231WS02006230    1.00   0.00  0.00  0.00  0.30  0.00  0.69  0.00  0.00  0.00
  WS02006232WS02006231    1.00   0.00  0.00  0.00  0.98  0.00  0.02  0.00  0.00  0.00
  WS02006234WS02006232    1.00   0.00  0.00  0.00  1.00  0.00  0.00  0.00  0.05  0.00
  WS02006235WS02006234    1.00   0.00  0.00  0.00  0.92  0.00  0.08  0.00  0.00  0.00
  WS02006238WS02006235    1.00   0.00  0.00  0.00  0.99  0.01  0.00  0.00  0.00  0.00
  WS02006239WS02006238    1.00   0.00  0.00  0.00  1.00  0.00  0.00  0.00  0.24  0.00
  WS02006240WS02006239    1.00   0.00  0.00  0.00  0.63  0.00  0.00  0.37  0.03  0.00
  WS02006242WS02006240    1.00   0.00  0.00  0.00  1.00  0.00  0.00  0.00  0.03  0.00
  WS02006243WS02006242    1.00   0.00  0.00  0.00  0.99  0.00  0.00  0.00  0.63  0.00
  WS02006245WS02006243    1.00   0.00  0.00  0.00  0.47  0.00  0.00  0.52  0.01  0.00
  WS02006247WS02006245    1.00   0.00  0.00  0.00  0.99  0.00  0.00  0.00  0.00  0.00
  WS02006248WS02006247    1.00   0.00  0.00  0.00  0.99  0.00  0.00  0.00  0.13  0.00
  WS02006249WS02006248    1.00   0.00  0.00  0.00  0.35  0.00  0.65  0.00  0.00  0.00
  WS02006251WS02006249    1.00   0.00  0.00  0.00  0.99  0.00  0.00  0.00  0.65  0.00
  WS02006252WS02006251    1.00   0.00  0.16  0.00  0.21  0.00  0.63  0.00  0.00  0.00
  WS02006256WS02006235    1.00   0.00  0.00  0.00  0.98  0.02  0.00  0.00  0.00  0.00
  WSF200WS02003060        1.00   0.00  0.05  0.00  0.47  0.48  0.00  0.00  0.64  0.00
  YS02001580YS02001583    1.00   0.22  0.54  0.00  0.24  0.00  0.00  0.00  0.63  0.00
  YS02001583YS02001586    1.00   0.40  0.31  0.00  0.29  0.00  0.00  0.00  0.64  0.00
  YS02001586YS02001590    1.00   0.13  0.00  0.00  0.47  0.04  0.00  0.37  0.35  0.00
  YS02001590YS02001593    1.00   0.13  0.01  0.00  0.17  0.00  0.70  0.00  0.00  0.00
  YS02001593YS02001596    1.00   0.13  0.00  0.00  0.18  0.01  0.00  0.67  0.02  0.00
  YS02001596YS02001600    1.00   0.13  0.00  0.00  0.24  0.01  0.00  0.62  0.04  0.00
  YS02001600YS02001601    1.00   0.13  0.01  0.00  0.86  0.00  0.00  0.00  0.57  0.00
  YS02001601YS02001602    1.00   0.13  0.01  0.00  0.87  0.00  0.00  0.00  0.00  0.00
  YS02001602YS02001605    1.00   0.13  0.00  0.00  0.87  0.00  0.00  0.00  0.00  0.00
  YS02001605YS02001607    1.00   0.14  0.00  0.00  0.86  0.00  0.00  0.00  0.00  0.00
  YS02001607YS02001610    1.00   0.13  0.00  0.00  0.86  0.00  0.00  0.00  0.01  0.00
  YS02001610YS02001613    1.00   0.13  0.00  0.00  0.87  0.00  0.00  0.00  0.00  0.00
  YS02001613YS02001616    1.00   0.13  0.00  0.00  0.87  0.00  0.00  0.00  0.00  0.00
  YS02001616YS02001619    1.00   0.13  0.00  0.00  0.87  0.00  0.00  0.00  0.00  0.00
  YS02001619YS02001622    1.00   0.13  0.00  0.00  0.87  0.00  0.00  0.00  0.26  0.00
  YS02001622YS02001625    1.00   0.13  0.00  0.00  0.87  0.00  0.00  0.00  0.03  0.00
  YS02001625YS02001629    1.00   0.13  0.04  0.00  0.20  0.00  0.63  0.00  0.00  0.00
  YS02001629YS02163301    1.00   0.14  0.01  0.00  0.85  0.00  0.00  0.00  0.00  0.00
  YS02001633YS02163601    1.00   0.00  0.01  0.00  0.99  0.00  0.00  0.00  0.14  0.00
  YS02001641YS02001644    1.00   0.00  0.01  0.00  0.99  0.00  0.00  0.00  0.00  0.00
  YS02001644YS02001647    1.00   0.00  0.16  0.00  0.84  0.00  0.00  0.00  0.00  0.00
  YS02001647YS02001649    1.00   0.00  0.16  0.00  0.55  0.29  0.00  0.00  0.54  0.00
  YS02001649YS02001757    1.00   0.00  0.00  0.00  0.69  0.31  0.00  0.00  0.45  0.00
  YS02001652YS02001649    1.00   0.00  0.00  0.00  0.97  0.03  0.00  0.00  0.71  0.00
  YS02001655YS02001652    1.00   0.00  0.00  0.00  0.22  0.01  0.00  0.77  0.06  0.00
  YS02001658YS02001655    1.00   0.00  0.14  0.00  0.68  0.18  0.00  0.00  0.65  0.00
  YS02001661YS02001658    1.00   0.14  0.00  0.00  0.51  0.35  0.00  0.00  0.68  0.00
  YS02001664YS02001661    1.00   0.13  0.00  0.00  0.73  0.15  0.00  0.00  0.83  0.00
  YS02001745YS02001748    1.00   0.00  0.00  0.00  0.12  0.01  0.00  0.87  0.06  0.00
  YS02001748YS02001751    1.00   0.00  0.00  0.00  0.84  0.16  0.00  0.00  0.76  0.00
  YS02001751YS02001754    1.00   0.00  0.00  0.00  0.18  0.01  0.00  0.81  0.03  0.00
  YS02001754YS02001757    1.00   0.00  0.00  0.00  1.00  0.00  0.00  0.00  0.80  0.00
  YS02001757CaochengTiaoxuchi    1.00   0.00  0.00  0.00  0.81  0.19  0.00  0.00  0.71  0.00
  YS02001759YS02001757    1.00   0.00  0.00  0.00  0.99  0.01  0.00  0.00  0.59  0.00
  YS02001762YS02001759    1.00   0.00  0.00  0.00  1.00  0.00  0.00  0.00  0.04  0.00
  YS02001765YS02001762    1.00   0.00  0.00  0.00  1.00  0.00  0.00  0.00  0.70  0.00
  YS02001767YS02001765    1.00   0.00  0.00  0.00  1.00  0.00  0.00  0.00  0.00  0.00
  YS02001770YS02001767    1.00   0.00  0.00  0.00  1.00  0.00  0.00  0.00  0.00  0.00
  YS02001774YS02001770    1.00   0.00  0.13  0.00  0.72  0.00  0.15  0.00  0.02  0.00
  YS02001779YS02001774    1.00   0.00  0.00  0.00  1.00  0.00  0.00  0.00  0.75  0.00
  YS02001783YS02001784    1.00   0.00  0.17  0.00  0.83  0.00  0.00  0.00  0.54  0.00
  YS02001784YS02001785    1.00   0.00  0.00  0.00  1.00  0.00  0.00  0.00  0.15  0.00
  YS02001786YS02001788    1.00   0.00  0.00  0.00  0.80  0.20  0.00  0.00  0.00  0.00
  YS02001788YS02001790    1.00   0.00  0.00  0.00  0.21  0.79  0.00  0.00  0.78  0.00
  YS02001790YS02001791    1.00   0.00  0.00  0.00  0.01  0.99  0.00  0.00  0.16  0.00
  YS02001791YS02001793    1.00   0.00  0.00  0.00  0.00  1.00  0.00  0.00  0.01  0.00
  YS02001793JiankangQianchi    1.00   0.00  0.00  0.00  0.61  0.38  0.00  0.00  0.93  0.00
  YS02001882YS02001884    1.00   0.15  0.01  0.00  0.85  0.00  0.00  0.00  0.00  0.00
  YS02001884YS02001887    1.00   0.06  0.05  0.00  0.89  0.00  0.00  0.00  0.00  0.00
  YS02001887YS02001890    1.00   0.00  0.00  0.00  0.97  0.00  0.03  0.00  0.00  0.00
  YS02001890YS02001895    1.00   0.00  0.15  0.00  0.85  0.00  0.00  0.00  0.00  0.00
  YS02001895YS02001898    1.00   0.15  0.00  0.00  0.83  0.00  0.01  0.00  0.00  0.00
  YS02001898YS02001901    1.00   0.16  0.00  0.00  0.84  0.00  0.00  0.00  0.01  0.00
  YS02001901YS02001904    1.00   0.16  0.00  0.00  0.84  0.00  0.00  0.00  0.00  0.00
  YS02001904YS02001907    1.00   0.00  0.15  0.00  0.84  0.00  0.00  0.00  0.00  0.00
  YS02001907YS02006553    1.00   0.00  0.02  0.00  0.98  0.00  0.00  0.00  0.00  0.00
  YS02001910YS02001907    1.00   0.00  0.00  0.00  0.97  0.00  0.00  0.03  0.12  0.00
  YS02001915YS02001910    1.00   0.00  0.00  0.00  0.97  0.03  0.00  0.00  0.13  0.00
  YS02001918YS02001915    1.00   0.00  0.01  0.00  0.98  0.02  0.00  0.00  0.70  0.00
  YS02001920YS02001918    1.00   0.00  0.01  0.00  0.99  0.00  0.00  0.00  0.00  0.00
  YS02001923YS02001920    1.00   0.00  0.00  0.00  1.00  0.00  0.00  0.00  0.89  0.00
  YS02001926YS02001923    1.00   0.00  0.07  0.00  0.09  0.00  0.83  0.00  0.00  0.00
  YS02001929YS02001926    1.00   0.00  0.13  0.00  0.87  0.00  0.00  0.00  0.79  0.00
  YS02006553YS02006556    1.00   0.01  0.00  0.00  0.99  0.00  0.00  0.00  0.03  0.00
  YS02006556YS02006558    1.00   0.00  0.00  0.00  1.00  0.00  0.00  0.00  0.00  0.00
  YS02006558YS02006561    1.00   0.17  0.00  0.00  0.09  0.75  0.00  0.00  0.17  0.00
  YS02006561YS02001783    1.00   0.17  0.00  0.00  0.13  0.71  0.00  0.00  0.65  0.00
  YS02163301YS02001633    1.00   0.00  0.14  0.00  0.86  0.00  0.00  0.00  0.00  0.00
  YS02163601YS02164001    1.00   0.00  0.08  0.00  0.92  0.00  0.00  0.00  0.00  0.00
  YS02164001YS02001641    1.00   0.01  0.08  0.00  0.92  0.00  0.00  0.00  0.05  0.00
  
  
  *************************
  Conduit Surcharge Summary
  *************************
  
  ----------------------------------------------------------------------------
                                                           Hours        Hours 
                         --------- Hours Full --------   Above Full   Capacity
  Conduit                Both Ends  Upstream  Dnstream   Normal Flow   Limited
  ----------------------------------------------------------------------------
  WS02003072WS02003073        0.01      0.01      0.01      1.93         0.01
  WS02004404WS02004405        0.01      0.01      0.01      2.90         0.01
  WS02004405WS02004406        0.01      0.01      0.01      1.35         0.01
  WS02006109WS02006110        0.52      0.52      2.32      0.85         0.01
  WS02006110WS02006113        0.01      0.01      2.31      0.01         0.01
  WS02006111WS02006112        0.01      0.01      2.37      0.01         0.01
  WS02006112WS02006115        0.01      0.01      1.49      0.01         0.01
  WS02006228WS02006109        2.26      2.33      2.26      2.59         2.26
  WS02006229WS02006228        2.25      2.28      2.25      2.48         2.23
  WS02006230WS02006229        2.40      2.43      2.40      3.22         2.40
  WS02006231WS02006230        0.61      0.61      1.55      2.98         0.01
  WS02006232WS02006231        1.27      1.27      2.35      1.35         0.01
  WS02006234WS02006232        2.04      2.05      2.35      1.29         1.15
  WS02006235WS02006234        1.74      1.80      2.00      2.89         0.14
  WS02006238WS02006235        2.07      2.07      2.36      0.01         0.06
  WS02006239WS02006238        2.21      2.35      2.21      2.44         1.83
  WS02006240WS02006239        2.19      2.30      2.20      2.43         1.71
  WS02006242WS02006240        2.28      2.28      2.41      2.50         0.03
  WS02006243WS02006242        2.30      2.30      2.38      0.01         0.34
  WS02006245WS02006243        2.28      2.30      2.28      2.00         1.38
  WS02006247WS02006245        2.28      2.32      2.28      2.55         2.11
  WS02006248WS02006247        2.29      2.29      2.31      0.01         0.37
  WS02006249WS02006248        2.27      2.27      2.29      2.55         0.01
  WS02006251WS02006249        2.29      2.30      2.29      2.52         2.06
  WS02006252WS02006251        2.56      2.56      2.56      2.56         0.01
  WS02006256WS02006235        2.71      2.93      5.43      1.84         0.03
  YS02001580YS02001583        0.96      0.96      0.99      0.01         0.01
  YS02001583YS02001586        0.97      0.97      1.08      0.01         0.01
  YS02001586YS02001590        1.09      1.09      1.17      0.01         0.01
  YS02001590YS02001593        1.17      1.17      1.20      1.25         0.01
  YS02001593YS02001596        1.19      1.19      1.31      0.01         0.01
  YS02001596YS02001600        1.37      1.37      1.46      0.01         0.01
  YS02001600YS02001601        1.51      1.51      1.75      0.01         0.01
  YS02001601YS02001602        1.66      1.66      1.78      1.49         0.01
  YS02001602YS02001605        1.61      1.61      1.66      2.51         0.01
  YS02001605YS02001607        1.57      1.61      1.57      1.72         1.57
  YS02001607YS02001610        1.12      1.12      1.15      0.01         0.01
  YS02001610YS02001613        1.11      1.11      1.15      0.01         0.01
  YS02001613YS02001616        1.06      1.06      1.11      0.01         0.01
  YS02001616YS02001619        1.04      1.04      1.06      0.19         0.11
  YS02001619YS02001622        1.03      1.04      1.03      1.22         1.00
  YS02001622YS02001625        1.03      1.03      1.26      0.01         0.01
  YS02001625YS02001629        0.96      0.96      1.26      0.01         0.01
  YS02001629YS02163301        1.24      1.24      1.25      0.48         0.37
  YS02001633YS02163601        1.28      1.28      1.31      0.60         0.59
  YS02001641YS02001644        1.12      1.18      1.12      1.80         1.11
  YS02001644YS02001647        0.83      0.83      1.12      0.05         0.01
  YS02001647YS02001649        0.83      0.83      0.97      0.01         0.01
  YS02001649YS02001757        0.96      0.97      1.03      0.41         0.35
  YS02001652YS02001649        0.75      0.75      0.97      0.01         0.01
  YS02001655YS02001652        0.51      0.51      0.72      0.01         0.01
  YS02001658YS02001655        0.35      0.35      0.51      0.01         0.01
  YS02001661YS02001658        0.17      0.17      0.35      0.01         0.01
  YS02001664YS02001661        0.04      0.04      0.22      0.01         0.01
  YS02001745YS02001748        0.02      0.02      0.23      0.01         0.01
  YS02001748YS02001751        0.31      0.31      0.40      0.01         0.01
  YS02001751YS02001754        0.40      0.40      0.55      0.01         0.01
  YS02001754YS02001757        0.61      0.61      1.03      0.01         0.01
  YS02001757CaochengTiaoxuchi        0.71      1.03      1.18      0.66         0.28
  YS02001759YS02001757        0.91      0.91      1.03      0.19         0.20
  YS02001762YS02001759        0.86      0.86      0.91      0.01         0.03
  YS02001765YS02001762        0.80      0.80      0.86      0.01         0.01
  YS02001767YS02001765        0.76      0.76      0.80      0.01         0.05
  YS02001770YS02001767        0.76      0.76      0.76      0.77         0.58
  YS02001774YS02001770        0.73      0.73      0.84      0.01         0.01
  YS02001779YS02001774        0.56      0.56      0.84      0.01         0.01
  YS02001783YS02001784        0.77      0.80      0.77      0.99         0.77
  YS02001784YS02001785        0.64      0.77      0.64      1.31         0.64
  YS02001786YS02001788        0.01      0.64      0.01      1.13         0.01
  YS02001790YS02001791        0.01      0.01      0.01      0.75         0.01
  YS02001882YS02001884        0.73      0.73      0.74      0.01         0.01
  YS02001884YS02001887        0.77      0.77      0.78      0.01         0.01
  YS02001887YS02001890        0.80      0.80      0.82      0.25         0.01
  YS02001890YS02001895        0.71      0.71      0.84      0.01         0.01
  YS02001895YS02001898        0.70      0.70      0.71      0.01         0.01
  YS02001898YS02001901        0.72      0.72      0.77      0.01         0.01
  YS02001901YS02001904        0.76      0.76      0.77      0.01         0.01
  YS02001904YS02001907        0.76      0.76      1.11      0.01         0.01
  YS02001907YS02006553        1.34      1.34      1.43      0.01         0.02
  YS02001910YS02001907        0.84      0.84      1.08      0.16         0.16
  YS02001915YS02001910        0.73      0.73      0.84      0.01         0.02
  YS02001918YS02001915        0.62      0.62      0.73      0.01         0.01
  YS02001920YS02001918        0.62      0.62      0.64      0.01         0.01
  YS02001923YS02001920        0.57      0.57      0.64      0.01         0.01
  YS02001926YS02001923        0.28      0.28      0.32      0.11         0.01
  YS02001929YS02001926        0.17      0.17      0.32      0.01         0.01
  YS02006553YS02006556        0.96      0.96      1.10      0.01         0.01
  YS02006556YS02006558        1.03      1.03      1.13      0.01         0.01
  YS02006558YS02006561        0.66      0.94      0.66      1.26         0.66
  YS02006561YS02001783        0.59      0.59      0.80      0.01         0.01
  YS02163301YS02001633        1.25      1.25      1.30      0.01         0.01
  YS02163601YS02164001        1.19      1.19      1.31      0.17         0.01
  YS02164001YS02001641        1.18      1.19      1.18      1.06         0.90
  
  
  ***************
  Pumping Summary
  ***************
  
  ---------------------------------------------------------------------------------------------------------
                                                  Min       Avg       Max     Total     Power    % Time Off
                        Percent   Number of      Flow      Flow      Flow    Volume     Usage    Pump Curve
  Pump                 Utilized   Start-Ups       LPS       LPS       LPS  10^6 ltr     Kw-hr    Low   High
  ---------------------------------------------------------------------------------------------------------
  CC-R1                   31.52           2      0.00    683.00    683.00     6.136    106.89    0.0   52.7
  CC-R2                   31.52           2      0.00    683.00    683.00     6.136    106.89    0.0   52.7
  CC-S1                   32.32           2      0.00    200.00    200.00     1.842     12.52    0.0   17.5
  CC-S2                   32.32           2      0.00    200.00    200.00     1.842     12.52    0.0   17.5
  JK-R1                    6.12          79      0.00   1000.00   1000.00     1.745      5.46    0.0    0.0
  JK-R2                    6.12          79      0.00   1000.00   1000.00     1.745      5.46    0.0    0.0
  JK-S                    22.87         111      0.00    300.00    300.00     1.955     43.45    0.0    0.0
  

  Analysis begun on:  Tue Apr 22 10:17:20 2025
  Analysis ended on:  Tue Apr 22 10:17:21 2025
  Total elapsed time: 00:00:01