
  EPA STORM WATER MANAGEMENT MODEL - VERSION 5.2 (Build 5.2.4)
  PYSWMM TOOLKIT API - VERSION v1.0 (2023-11-27)
  ------------------------------------------------------------

  WARNING 04: minimum elevation drop used for Conduit WS02004404WS02004405
  WARNING 03: negative offset ignored for Link YS02001904YS02001907
  
  ****************
  Analysis Options
  ****************
  Flow Units ............... LPS
  Process Models:
    Rainfall/Runoff ........ YES
    RDII ................... NO
    Snowmelt ............... NO
    Groundwater ............ NO
    Flow Routing ........... YES
    Ponding Allowed ........ NO
    Water Quality .......... NO
  Infiltration Method ...... HORTON
  Flow Routing Method ...... DYNWAVE
  Surcharge Method ......... EXTRAN
  Starting Date ............ 08/28/2015 08:00:00
  Ending Date .............. 08/28/2015 16:00:00
  Antecedent Dry Days ...... 8.0
  Report Time Step ......... 00:01:00
  Wet Time Step ............ 00:01:00
  Dry Time Step ............ 00:01:00
  Routing Time Step ........ 30.00 sec
  Variable Time Step ....... YES
  Maximum Trials ........... 8
  Number of Threads ........ 4
  Head Tolerance ........... 0.001500 m
  
  
  **************************        Volume         Depth
  Runoff Quantity Continuity     hectare-m            mm
  **************************     ---------       -------
  Total Precipitation ......         3.355       101.151
  Evaporation Loss .........         0.000         0.000
  Infiltration Loss ........         0.104         3.121
  Surface Runoff ...........         3.219        97.055
  Final Storage ............         0.033         0.998
  Continuity Error (%) .....        -0.023
  
  
  **************************        Volume        Volume
  Flow Routing Continuity        hectare-m      10^6 ltr
  **************************     ---------     ---------
  Dry Weather Inflow .......         0.025         0.248
  Wet Weather Inflow .......         3.219        32.187
  Groundwater Inflow .......         0.000         0.000
  RDII Inflow ..............         0.000         0.000
  External Inflow ..........         0.083         0.825
  External Outflow .........         2.167        21.673
  Flooding Loss ............         1.317        13.166
  Evaporation Loss .........         0.000         0.000
  Exfiltration Loss ........         0.000         0.000
  Initial Stored Volume ....         0.243         2.431
  Final Stored Volume ......         0.097         0.966
  Continuity Error (%) .....        -0.320
  
  
  *************************
  Highest Continuity Errors
  *************************
  Node YS02001583 (-10.35%)
  Node YS02001884 (5.05%)
  Node WS02006256 (-3.74%)
  
  
  ***************************
  Time-Step Critical Elements
  ***************************
  Link WS02004404WS02004405 (23.99%)
  Link WS02006238WS02006235 (23.41%)
  Link WS02003066WSF200 (11.20%)
  Link YS02001791YS02001793 (9.34%)
  Link YS02001793JiankangQianchi (6.30%)
  
  
  ********************************
  Highest Flow Instability Indexes
  ********************************
  Link WS02006113WS02006111 (37)
  Link WS02006252WS02006251 (34)
  Link YS02001602YS02001605 (29)
  Link YS02001607YS02001610 (26)
  Link YS02001605YS02001607 (25)
  
  
  *********************************
  Most Frequent Nonconverging Nodes
  *********************************
  Node CC-1 (41.03%)
  Node CC-2 (41.03%)
  Node JK-1 (41.03%)
  Node JK-2 (41.03%)
  Node WSC (41.03%)
  
  
  *************************
  Routing Time Step Summary
  *************************
  Minimum Time Step           :     0.00 sec
  Average Time Step           :     2.89 sec
  Maximum Time Step           :     6.43 sec
  % of Time in Steady State   :     0.00
  Average Iterations per Step :     4.83
  % of Steps Not Converging   :    41.03
  Time Step Frequencies       :
     30.000 - 13.228 sec      :     0.00 %
     13.228 -  5.833 sec      :    16.16 %
      5.833 -  2.572 sec      :    28.32 %
      2.572 -  1.134 sec      :    37.33 %
      1.134 -  0.500 sec      :    18.18 %
  
  
  ***************************
  Subcatchment Runoff Summary
  ***************************
  
  ------------------------------------------------------------------------------------------------------------------------------
                            Total      Total      Total      Total     Imperv       Perv      Total       Total     Peak  Runoff
                           Precip      Runon       Evap      Infil     Runoff     Runoff     Runoff      Runoff   Runoff   Coeff
  Subcatchment                 mm         mm         mm         mm         mm         mm         mm    10^6 ltr      LPS
  ------------------------------------------------------------------------------------------------------------------------------
  sub60                    101.15       0.00       0.00       1.89      87.82      10.26      98.08        1.29   766.80   0.970
  sub61                    101.15       0.00       0.00       2.73      82.83      14.47      97.30        1.79  1062.15   0.962
  sub62                    101.15       0.00       0.00       1.26      91.78       6.84      98.62        2.70  1507.21   0.975
  sub63                    101.15       0.00       0.00       5.02      70.85      24.32      95.17        2.16  1192.86   0.941
  sub64                    101.15       0.00       0.00       2.54      84.78      12.63      97.41        2.34  1231.60   0.963
  sub65                    101.15       0.00       0.00       2.20      86.75      10.95      97.71        2.69  1379.93   0.966
  sub66                    101.15       0.00       0.00       6.17      70.74      23.17      93.91        4.38  1820.86   0.928
  sub67                    101.15       0.00       0.00       1.21      91.82       6.89      98.71        1.84  1154.74   0.976
  sub68                    101.15       0.00       0.00       2.26      85.81      11.90      97.71        2.69  1543.36   0.966
  sub69                    101.15       0.00       0.00       2.03      85.87      13.15      99.02        3.67  1839.08   0.979
  sub70                    101.15       0.00       0.00       6.69      66.59      27.70      94.29        2.72  1026.70   0.932
  sub71                    101.15       0.00       0.00       1.29      91.74       6.81      98.54        2.58  1335.04   0.974
  sub72                    101.15       0.00       0.00       1.15      92.67       5.94      98.61        1.36   648.24   0.975
  
  
  ******************
  Node Depth Summary
  ******************
  
  ---------------------------------------------------------------------------------
                                 Average  Maximum  Maximum  Time of Max    Reported
                                   Depth    Depth      HGL   Occurrence   Max Depth
  Node                 Type       Meters   Meters   Meters  days hr:min      Meters
  ---------------------------------------------------------------------------------
  WS02003060           JUNCTION     0.24     0.38     5.31     0  03:16        0.38
  WS02003066           JUNCTION     0.19     0.30     5.85     0  03:15        0.30
  WS02003067           JUNCTION     0.50     0.70     6.02     0  03:15        0.70
  WS02003069           JUNCTION     0.27     0.43     5.01     0  03:16        0.43
  WS02003072           JUNCTION     0.33     0.50     4.87     0  03:16        0.50
  WS02003073           JUNCTION     0.19     0.30     4.36     0  03:17        0.30
  WS02004401           JUNCTION     0.60     0.85     6.85     0  03:13        0.85
  WS02004402           JUNCTION     0.63     0.88     6.84     0  03:13        0.88
  WS02004403           JUNCTION     0.65     0.89     6.82     0  03:13        0.89
  WS02004404           JUNCTION     0.72     0.96     6.81     0  03:13        0.96
  WS02004405           JUNCTION     0.72     0.96     6.81     0  03:14        0.96
  WS02004406           JUNCTION     0.73     0.96     6.79     0  03:14        0.96
  WS02004407           JUNCTION     0.18     0.30     6.61     0  03:14        0.30
  WS02004409           JUNCTION     0.40     0.67     6.44     0  03:14        0.67
  WS02004410           JUNCTION     0.43     0.68     6.40     0  03:14        0.68
  WS02004411           JUNCTION     0.44     0.69     6.37     0  03:14        0.69
  WS02004412           JUNCTION     0.46     0.70     6.34     0  03:15        0.70
  WS02004413           JUNCTION     0.61     0.86     6.33     0  03:15        0.86
  WS02006109           JUNCTION     0.69     1.21     7.83     0  02:39        1.02
  WS02006110           JUNCTION     0.68     1.32     7.90     0  02:39        1.01
  WS02006111           JUNCTION     0.19     0.29     6.99     0  03:00        0.29
  WS02006112           JUNCTION     0.77     1.08     6.96     0  03:19        1.06
  WS02006113           JUNCTION     0.29     0.46     7.35     0  02:59        0.46
  WS02006115           JUNCTION     0.50     0.75     6.89     0  03:13        0.75
  WS02006116           JUNCTION     0.58     0.83     6.87     0  03:13        0.83
  WS02006228           JUNCTION     0.69     1.29     7.94     0  02:39        1.13
  WS02006229           JUNCTION     0.67     1.34     8.03     0  02:39        1.15
  WS02006230           JUNCTION     0.69     1.60     8.34     0  02:39        1.27
  WS02006231           JUNCTION     0.48     2.11     9.23     0  02:46        1.31
  WS02006232           JUNCTION     0.62     2.18     9.22     0  02:18        2.18
  WS02006234           JUNCTION     0.57     1.96     9.12     0  01:44        1.96
  WS02006235           JUNCTION     0.61     2.00     9.16     0  02:03        2.00
  WS02006238           JUNCTION     0.64     2.15     9.29     0  02:03        2.15
  WS02006239           JUNCTION     0.61     2.03     9.24     0  02:18        2.03
  WS02006240           JUNCTION     0.58     2.10     9.39     0  02:18        2.10
  WS02006242           JUNCTION     0.65     1.55     8.82     0  01:40        1.55
  WS02006243           JUNCTION     0.58     1.48     8.90     0  02:18        1.48
  WS02006245           JUNCTION     0.58     1.56     9.04     0  02:18        1.56
  WS02006247           JUNCTION     0.60     1.47     8.97     0  02:18        1.47
  WS02006248           JUNCTION     0.57     1.10     8.69     0  01:34        1.10
  WS02006249           JUNCTION     0.60     1.09     8.69     0  01:34        1.09
  WS02006251           JUNCTION     0.60     1.46     9.13     0  01:34        1.24
  WS02006252           JUNCTION     0.37     1.50     9.74     0  00:00        1.28
  WS02006256           JUNCTION     1.22     2.35     9.28     0  00:00        2.35
  WSF200               JUNCTION     0.17     0.29     5.52     0  03:15        0.29
  YS02001580           JUNCTION     0.21     1.05     9.59     0  01:31        0.77
  YS02001583           JUNCTION     0.25     1.14     9.64     0  01:31        0.83
  YS02001586           JUNCTION     0.38     1.13     9.30     0  01:31        1.13
  YS02001590           JUNCTION     0.51     1.40     9.26     0  01:31        1.40
  YS02001593           JUNCTION     0.44     1.35     9.22     0  01:31        1.30
  YS02001596           JUNCTION     0.60     1.70     9.11     0  01:31        1.65
  YS02001600           JUNCTION     0.70     1.87     9.00     0  01:31        1.87
  YS02001601           JUNCTION     0.88     2.06     8.90     0  01:30        2.06
  YS02001602           JUNCTION     0.77     1.87     8.77     0  01:31        1.87
  YS02001605           JUNCTION     0.72     1.78     8.68     0  01:31        1.78
  YS02001607           JUNCTION     0.66     1.66     8.50     0  02:07        1.66
  YS02001610           JUNCTION     0.70     1.68     8.48     0  01:31        1.68
  YS02001613           JUNCTION     0.66     1.67     8.51     0  02:23        1.67
  YS02001616           JUNCTION     0.60     1.61     8.52     0  01:35        1.61
  YS02001619           JUNCTION     0.58     1.61     8.54     0  01:35        1.61
  YS02001622           JUNCTION     0.57     1.62     8.52     0  01:31        1.59
  YS02001625           JUNCTION     0.80     1.78     8.38     0  01:31        1.78
  YS02001629           JUNCTION     0.72     1.85     8.40     0  01:31        1.85
  YS02001633           JUNCTION     0.79     2.08     8.53     0  01:36        2.08
  YS02001641           JUNCTION     0.74     1.98     8.42     0  01:36        1.98
  YS02001644           JUNCTION     0.73     1.92     8.35     0  01:34        1.92
  YS02001647           JUNCTION     0.52     1.82     8.43     0  01:35        1.82
  YS02001649           JUNCTION     0.58     2.05     8.44     0  01:35        2.05
  YS02001652           JUNCTION     0.46     2.16     8.76     0  01:35        1.89
  YS02001655           JUNCTION     0.36     2.20     9.05     0  01:35        1.69
  YS02001658           JUNCTION     0.26     2.25     9.39     0  01:35        1.49
  YS02001661           JUNCTION     0.23     2.24     9.64     0  01:35        1.31
  YS02001664           JUNCTION     0.10     1.83     9.76     0  01:35        0.85
  YS02001745           JUNCTION     0.12     2.20     9.72     0  01:35        0.91
  YS02001748           JUNCTION     0.23     2.27     9.35     0  01:35        2.27
  YS02001751           JUNCTION     0.30     2.20     9.08     0  01:35        1.98
  YS02001754           JUNCTION     0.41     2.20     8.81     0  01:35        1.75
  YS02001757           JUNCTION     0.60     2.21     8.47     0  01:35        2.12
  YS02001759           JUNCTION     0.54     2.21     8.57     0  01:36        2.21
  YS02001762           JUNCTION     0.53     2.15     8.55     0  01:35        2.15
  YS02001765           JUNCTION     0.51     2.10     8.55     0  01:34        2.10
  YS02001767           JUNCTION     0.50     2.03     8.52     0  01:34        2.03
  YS02001770           JUNCTION     0.51     1.95     8.44     0  01:34        1.95
  YS02001774           JUNCTION     0.57     2.03     8.45     0  01:39        2.03
  YS02001779           JUNCTION     0.39     1.68     8.37     0  01:34        1.68
  YS02001783           JUNCTION     0.40     1.42     7.56     0  01:33        1.25
  YS02001784           JUNCTION     0.39     1.23     7.30     0  01:33        1.15
  YS02001786           JUNCTION     0.32     0.96     6.99     0  01:33        0.88
  YS02001788           JUNCTION     0.24     0.63     6.60     0  01:37        0.62
  YS02001790           JUNCTION     0.28     0.73     6.37     0  01:37        0.72
  YS02001791           JUNCTION     0.17     0.44     5.91     0  01:37        0.43
  YS02001793           JUNCTION     0.09     0.25     5.08     0  01:46        0.24
  YS02001882           JUNCTION     0.49     1.83     8.55     0  01:36        1.83
  YS02001884           JUNCTION     0.58     1.93     8.55     0  01:36        1.93
  YS02001887           JUNCTION     0.65     2.00     8.54     0  01:36        2.00
  YS02001890           JUNCTION     0.68     1.81     8.32     0  01:32        1.81
  YS02001895           JUNCTION     0.46     1.58     8.33     0  01:33        1.56
  YS02001898           JUNCTION     0.47     1.59     8.33     0  01:33        1.58
  YS02001901           JUNCTION     0.57     1.71     8.32     0  01:39        1.71
  YS02001904           JUNCTION     0.55     1.67     8.30     0  01:39        1.67
  YS02001907           JUNCTION     0.85     1.96     8.25     0  01:33        1.96
  YS02001910           JUNCTION     0.68     2.01     8.52     0  01:36        2.01
  YS02001915           JUNCTION     0.51     2.00     8.72     0  01:36        2.00
  YS02001918           JUNCTION     0.33     1.81     8.88     0  01:34        1.81
  YS02001920           JUNCTION     0.41     2.14     9.15     0  01:34        2.00
  YS02001923           JUNCTION     0.27     2.03     9.29     0  01:34        1.80
  YS02001926           JUNCTION     0.28     1.90     9.35     0  01:34        1.55
  YS02001929           JUNCTION     0.18     1.78     9.47     0  01:33        1.18
  YS02006553           JUNCTION     0.86     2.02     8.31     0  01:36        2.02
  YS02006556           JUNCTION     0.83     2.09     8.40     0  01:36        2.09
  YS02006558           JUNCTION     0.87     2.22     8.49     0  01:36        2.22
  YS02006561           JUNCTION     0.26     1.11     7.77     0  01:33        0.91
  YS02163301           JUNCTION     0.74     1.95     8.47     0  01:36        1.95
  YS02163601           JUNCTION     0.81     2.08     8.48     0  01:36        2.08
  YS02164001           JUNCTION     0.74     2.02     8.47     0  02:16        1.98
  CC-1                 OUTFALL      0.00     0.00     0.00     0  00:00        0.00
  CC-2                 OUTFALL      0.00     0.00     0.00     0  00:00        0.00
  JK-1                 OUTFALL      0.00     0.00     0.00     0  00:00        0.00
  JK-2                 OUTFALL      0.00     0.00     0.00     0  00:00        0.00
  WSC                  OUTFALL      0.18     0.30     0.97     0  03:17        0.30
  CC-storage           STORAGE      0.66     1.52     7.02     0  02:31        1.52
  JK-storage           STORAGE      0.21     2.99     3.79     0  00:00        0.68
  
  
  *******************
  Node Inflow Summary
  *******************
  
  -------------------------------------------------------------------------------------------------
                                  Maximum  Maximum                  Lateral       Total        Flow
                                  Lateral    Total  Time of Max      Inflow      Inflow     Balance
                                   Inflow   Inflow   Occurrence      Volume      Volume       Error
  Node                 Type           LPS      LPS  days hr:min    10^6 ltr    10^6 ltr     Percent
  -------------------------------------------------------------------------------------------------
  WS02003060           JUNCTION     16.53   552.46     0  03:16       0.471         5.4       0.038
  WS02003066           JUNCTION      0.00   535.94     0  03:15           0        4.93       0.030
  WS02003067           JUNCTION      0.00   535.94     0  03:15           0        4.94       0.083
  WS02003069           JUNCTION      0.32   552.79     0  03:16     0.00912        5.41       0.073
  WS02003072           JUNCTION      0.00   552.75     0  03:16           0        5.41       0.133
  WS02003073           JUNCTION      1.82   554.55     0  03:17      0.0519        5.45       0.101
  WS02004401           JUNCTION      0.00   539.96     0  02:52           0        5.04       0.201
  WS02004402           JUNCTION      0.00   536.24     0  02:44           0        5.03       0.205
  WS02004403           JUNCTION      0.00   536.54     0  02:44           0        5.02       0.200
  WS02004404           JUNCTION      0.16   536.19     0  03:14     0.00462        5.01       0.174
  WS02004405           JUNCTION      0.04   536.26     0  03:14     0.00109        5.01       0.241
  WS02004406           JUNCTION      0.00   536.29     0  03:14           0        4.99       0.416
  WS02004407           JUNCTION      0.00   536.18     0  03:14           0        4.97       0.020
  WS02004409           JUNCTION      0.00   536.15     0  03:14           0        4.97       0.052
  WS02004410           JUNCTION      0.00   536.04     0  03:13           0        4.97       0.088
  WS02004411           JUNCTION      0.00   536.02     0  03:14           0        4.97       0.112
  WS02004412           JUNCTION      0.00   535.98     0  03:14           0        4.96       0.148
  WS02004413           JUNCTION      0.00   535.97     0  03:15           0        4.95       0.276
  WS02006109           JUNCTION      1.23   562.93     0  02:54      0.0351        5.09       0.200
  WS02006110           JUNCTION      0.00   565.33     0  02:54           0        5.08       0.126
  WS02006111           JUNCTION      0.00   560.91     0  02:59           0        5.07       0.011
  WS02006112           JUNCTION      0.00   544.53     0  03:00           0        5.07       0.399
  WS02006113           JUNCTION      0.00   571.86     0  03:19           0        5.07       0.041
  WS02006115           JUNCTION      0.00   550.31     0  02:56           0        5.05       0.137
  WS02006116           JUNCTION      0.00   540.37     0  02:53           0        5.04       0.016
  WS02006228           JUNCTION      0.00   558.79     0  02:54           0        5.06       0.082
  WS02006229           JUNCTION      0.00   558.15     0  02:54           0        5.06       0.117
  WS02006230           JUNCTION     10.28   593.49     0  02:38       0.293        5.06      -0.006
  WS02006231           JUNCTION      0.00   592.51     0  01:35           0        4.77      -0.072
  WS02006232           JUNCTION      0.00   591.61     0  01:35           0        4.78       0.395
  WS02006234           JUNCTION      0.00   586.07     0  01:35           0        4.76      -0.512
  WS02006235           JUNCTION      0.00   580.32     0  01:35           0        4.91       0.419
  WS02006238           JUNCTION      0.00   423.43     0  02:44           0        3.63      -0.025
  WS02006239           JUNCTION      0.00   424.83     0  03:41           0        3.55      -0.067
  WS02006240           JUNCTION      0.00   422.40     0  03:41           0        3.49       0.040
  WS02006242           JUNCTION      0.00   423.40     0  03:37           0        3.46      -0.045
  WS02006243           JUNCTION      0.00   424.74     0  03:37           0        3.44      -0.087
  WS02006245           JUNCTION      0.00   425.36     0  03:41           0        3.45       0.179
  WS02006247           JUNCTION      0.00   426.23     0  03:41           0        3.45       0.008
  WS02006248           JUNCTION      0.00   427.16     0  03:41           0        3.46       0.090
  WS02006249           JUNCTION      0.00   500.40     0  01:29           0        3.75       0.228
  WS02006251           JUNCTION      0.08   415.29     0  03:15     0.00219        3.74      -0.023
  WS02006252           JUNCTION      0.00   400.00     0  00:00           0        3.74       0.002
  WS02006256           JUNCTION      0.00   365.55     0  02:20           0           2      -3.602
  WSF200               JUNCTION      0.00   535.94     0  03:15           0        4.93       0.007
  YS02001580           JUNCTION      0.00   125.52     0  01:31           0     0.00435      -0.493
  YS02001583           JUNCTION      0.00   204.40     0  01:31           0      0.0147      -9.382
  YS02001586           JUNCTION   1026.70  1026.72     0  01:42        2.72        2.74       0.062
  YS02001590           JUNCTION      0.00   318.37     0  02:16           0        1.77      -0.029
  YS02001593           JUNCTION      0.00   318.42     0  02:16           0        1.78       0.021
  YS02001596           JUNCTION      0.00   318.17     0  02:11           0        1.77       0.000
  YS02001600           JUNCTION      0.00   318.02     0  02:16           0        1.77       0.009
  YS02001601           JUNCTION   1839.08  2156.60     0  01:40        3.66        5.44       0.015
  YS02001602           JUNCTION      0.00   559.90     0  01:31           0        2.83       0.015
  YS02001605           JUNCTION      0.00   559.87     0  01:31           0        2.64       0.016
  YS02001607           JUNCTION      0.00   559.78     0  01:31           0        2.64       0.073
  YS02001610           JUNCTION      0.00   951.78     0  01:45           0        3.33       0.077
  YS02001613           JUNCTION      0.00   614.87     0  01:46           0        2.55       0.057
  YS02001616           JUNCTION      0.00   614.95     0  01:46           0        2.55       0.022
  YS02001619           JUNCTION   1820.86  1820.86     0  01:42        4.38        6.24       0.006
  YS02001622           JUNCTION      0.00  1053.91     0  01:43           0         5.5      -0.010
  YS02001625           JUNCTION      0.00  1503.87     0  01:46           0        5.89       0.167
  YS02001629           JUNCTION      0.00   926.89     0  01:33           0        4.46      -0.003
  YS02001633           JUNCTION   1380.13  1443.19     0  01:33         2.7        6.57       0.053
  YS02001641           JUNCTION      0.00  1440.35     0  01:33           0        6.01       0.052
  YS02001644           JUNCTION   1231.63  1914.13     0  01:33        2.34        8.34       0.041
  YS02001647           JUNCTION      0.00  1913.37     0  01:33           0        7.29       0.007
  YS02001649           JUNCTION      0.00  2234.18     0  01:33           0        9.46       0.014
  YS02001652           JUNCTION      0.00  1204.45     0  01:38           0        2.17      -0.045
  YS02001655           JUNCTION      0.15  1204.42     0  01:38     0.00439        2.17      -0.105
  YS02001658           JUNCTION      0.00  1204.18     0  01:38           0        2.16      -0.025
  YS02001661           JUNCTION      0.00  1204.40     0  01:38           0        2.16       0.013
  YS02001664           JUNCTION   1192.86  1192.86     0  01:39        2.16        2.16      -0.015
  YS02001745           JUNCTION    766.80   766.80     0  01:39        1.29        1.29       0.143
  YS02001748           JUNCTION      0.04   784.64     0  01:38     0.00128        1.29      -0.260
  YS02001751           JUNCTION      0.01   784.44     0  01:38    0.000313         1.3       0.082
  YS02001754           JUNCTION      0.26   784.84     0  01:38     0.00741        1.32      -0.140
  YS02001757           JUNCTION      0.00  3589.69     0  01:40           0        14.7       0.040
  YS02001759           JUNCTION   1062.19  1564.63     0  01:35        1.79        3.95      -0.000
  YS02001762           JUNCTION      0.00   875.57     0  01:35           0        2.17      -0.003
  YS02001765           JUNCTION      0.00   874.26     0  01:35           0        2.17       0.002
  YS02001767           JUNCTION      0.54   876.81     0  01:35      0.0152        2.17      -0.002
  YS02001770           JUNCTION   1507.37  1507.37     0  01:39        2.71        2.75      -0.003
  YS02001774           JUNCTION      0.00   851.17     0  01:41           0       0.572       0.184
  YS02001779           JUNCTION      0.01   851.35     0  01:41    0.000142       0.526      -0.095
  YS02001783           JUNCTION      0.00  1174.02     0  01:36           0         5.4       0.003
  YS02001784           JUNCTION      1.06  1175.22     0  01:36      0.0302        5.43       0.010
  YS02001786           JUNCTION      0.06  1175.53     0  01:36      0.0016        5.43       0.011
  YS02001788           JUNCTION      0.07  1175.93     0  01:36     0.00202        5.43       0.005
  YS02001790           JUNCTION      0.15  1187.56     0  01:37     0.00442        5.43       0.012
  YS02001791           JUNCTION      0.00  1297.37     0  01:37           0        5.43      -0.018
  YS02001793           JUNCTION      0.00  1265.53     0  01:37           0        5.43      -0.016
  YS02001882           JUNCTION      0.00    52.44     0  01:32           0      0.0142       4.619
  YS02001884           JUNCTION      0.00   118.57     0  01:31           0      0.0506       5.321
  YS02001887           JUNCTION   1155.19  1155.83     0  01:38        1.85        1.88       0.231
  YS02001890           JUNCTION      0.00  1155.48     0  01:38           0        1.84       0.285
  YS02001895           JUNCTION      0.00   521.36     0  01:33           0        1.52       0.131
  YS02001898           JUNCTION      0.00   521.85     0  01:33           0        1.51       0.016
  YS02001901           JUNCTION      0.00   522.67     0  01:33           0        1.52       0.228
  YS02001904           JUNCTION      0.00   523.57     0  01:33           0        1.52       0.191
  YS02001907           JUNCTION      0.00  2856.24     0  01:39           0        5.65       0.324
  YS02001910           JUNCTION      0.00  1983.32     0  01:40           0        4.01       0.183
  YS02001915           JUNCTION   1335.06  1985.12     0  01:40        2.58        4.06       0.035
  YS02001918           JUNCTION      0.00   658.08     0  01:39           0        1.52       0.014
  YS02001920           JUNCTION      2.87   653.48     0  01:39      0.0818         1.5       0.057
  YS02001923           JUNCTION      0.04   649.28     0  01:41     0.00107         1.4      -0.059
  YS02001926           JUNCTION      0.05   875.41     0  01:33     0.00149        1.38      -0.038
  YS02001929           JUNCTION    648.24   746.12     0  01:33        1.36        1.36      -0.091
  YS02006553           JUNCTION      0.00   792.34     0  02:09           0        2.99       0.400
  YS02006556           JUNCTION      0.00   791.94     0  02:09           0           3       0.267
  YS02006558           JUNCTION   1544.24  1544.24     0  01:39        2.71        5.56       0.067
  YS02006561           JUNCTION      0.00  1174.67     0  01:36           0         5.4      -0.003
  YS02163301           JUNCTION      0.00   926.76     0  01:32           0        4.44       0.041
  YS02163601           JUNCTION      0.11  1442.48     0  01:33     0.00313        6.01       0.086
  YS02164001           JUNCTION      0.00  1441.27     0  01:33           0           6       0.044
  CC-1                 OUTFALL       0.00   683.00     0  00:00           0        6.31       0.000
  CC-2                 OUTFALL       0.00   683.00     0  00:00           0        6.31       0.000
  JK-1                 OUTFALL       0.00  1000.00     0  00:00           0        1.81       0.000
  JK-2                 OUTFALL       0.00  1000.00     0  00:00           0        1.81       0.000
  WSC                  OUTFALL       0.00   554.50     0  03:17           0        5.45       0.000
  CC-storage           STORAGE       0.00  3588.03     0  01:41           0        16.9      -0.281
  JK-storage           STORAGE       0.00  1402.02     0  01:37           0        5.59      -0.334
  
  
  **********************
  Node Surcharge Summary
  **********************
  
  Surcharging occurs when water rises above the top of the highest conduit.
  ---------------------------------------------------------------------
                                               Max. Height   Min. Depth
                                   Hours       Above Crown    Below Rim
  Node                 Type      Surcharged         Meters       Meters
  ---------------------------------------------------------------------
  WS02006109           JUNCTION        2.29          0.389        1.431
  WS02006110           JUNCTION        0.58          0.407        1.443
  WS02006112           JUNCTION        1.56          0.080        1.600
  WS02006228           JUNCTION        2.27          0.462        1.738
  WS02006229           JUNCTION        2.30          0.539        1.911
  WS02006230           JUNCTION        0.68          0.516        1.054
  WS02006231           JUNCTION        1.35          1.398        0.132
  WS02006232           JUNCTION        2.37          1.480        0.000
  WS02006234           JUNCTION        1.83          1.240        0.000
  WS02006235           JUNCTION        2.05          1.290        0.000
  WS02006238           JUNCTION        2.24          1.430        0.000
  WS02006239           JUNCTION        2.23          1.290        0.000
  WS02006240           JUNCTION        2.31          1.390        0.000
  WS02006242           JUNCTION        2.41          0.820        0.000
  WS02006243           JUNCTION        2.32          0.770        0.000
  WS02006245           JUNCTION        2.32          0.850        0.000
  WS02006247           JUNCTION        2.34          0.760        0.000
  WS02006248           JUNCTION        2.31          0.380        0.000
  WS02006249           JUNCTION        2.32          0.390        0.000
  WS02006251           JUNCTION        1.75          0.435        0.745
  WS02006252           JUNCTION        2.60          1.100        0.000
  WS02006256           JUNCTION        5.72          2.050        0.000
  YS02001580           JUNCTION        1.00          0.450        0.000
  YS02001583           JUNCTION        1.01          0.500        0.000
  YS02001586           JUNCTION        1.16          0.510        0.000
  YS02001590           JUNCTION        1.26          0.750        0.000
  YS02001593           JUNCTION        1.26          0.733        0.107
  YS02001596           JUNCTION        1.39          0.966        0.104
  YS02001600           JUNCTION        1.59          1.190        0.000
  YS02001601           JUNCTION        1.82          1.440        0.000
  YS02001602           JUNCTION        1.74          1.270        0.000
  YS02001605           JUNCTION        1.71          1.180        0.000
  YS02001607           JUNCTION        1.21          0.656        0.024
  YS02001610           JUNCTION        1.25          0.680        0.000
  YS02001613           JUNCTION        1.20          0.671        0.029
  YS02001616           JUNCTION        1.15          0.610        0.000
  YS02001619           JUNCTION        1.13          0.610        0.000
  YS02001622           JUNCTION        1.13          0.620        0.000
  YS02001625           JUNCTION        1.35          0.780        0.000
  YS02001629           JUNCTION        1.05          0.470        0.000
  YS02001633           JUNCTION        1.38          1.060        0.000
  YS02001641           JUNCTION        1.30          0.979        0.121
  YS02001644           JUNCTION        1.26          0.920        0.000
  YS02001647           JUNCTION        0.98          0.820        0.080
  YS02001649           JUNCTION        1.15          1.050        0.000
  YS02001652           JUNCTION        0.84          1.130        0.000
  YS02001655           JUNCTION        0.54          1.200        0.000
  YS02001658           JUNCTION        0.33          1.251        0.049
  YS02001661           JUNCTION        0.15          1.166        0.224
  YS02001664           JUNCTION        0.01          0.833        0.477
  YS02001745           JUNCTION        0.01          1.204        0.146
  YS02001748           JUNCTION        0.20          1.190        0.000
  YS02001751           JUNCTION        0.39          1.200        0.000
  YS02001754           JUNCTION        0.63          1.150        0.000
  YS02001757           JUNCTION        1.22          1.210        0.000
  YS02001759           JUNCTION        1.09          1.210        0.000
  YS02001762           JUNCTION        1.05          1.150        0.000
  YS02001765           JUNCTION        0.97          1.100        0.000
  YS02001767           JUNCTION        0.91          1.030        0.000
  YS02001770           JUNCTION        0.86          0.920        0.000
  YS02001774           JUNCTION        1.02          1.027        0.023
  YS02001779           JUNCTION        0.63          0.680        0.000
  YS02001783           JUNCTION        0.84          0.621        0.979
  YS02001784           JUNCTION        0.80          0.428        1.062
  YS02001786           JUNCTION        0.68          0.163        1.267
  YS02001882           JUNCTION        0.76          0.830        0.000
  YS02001884           JUNCTION        0.78          0.870        0.000
  YS02001887           JUNCTION        0.82          0.950        0.000
  YS02001890           JUNCTION        0.84          0.760        0.000
  YS02001895           JUNCTION        0.75          0.583        0.167
  YS02001898           JUNCTION        0.74          0.561        0.179
  YS02001901           JUNCTION        0.80          0.707        0.163
  YS02001904           JUNCTION        0.79          0.669        0.181
  YS02001907           JUNCTION        1.10          0.950        0.000
  YS02001910           JUNCTION        0.87          1.014        0.086
  YS02001915           JUNCTION        0.76          1.000        0.000
  YS02001918           JUNCTION        0.66          0.810        0.000
  YS02001920           JUNCTION        0.67          1.140        0.000
  YS02001923           JUNCTION        0.26          0.820        0.000
  YS02001926           JUNCTION        0.29          0.900        0.000
  YS02001929           JUNCTION        0.14          0.780        0.000
  YS02006553           JUNCTION        1.13          1.024        0.166
  YS02006556           JUNCTION        0.98          1.049        0.301
  YS02006558           JUNCTION        0.97          1.124        0.276
  YS02006561           JUNCTION        0.62          0.311        0.839
  YS02163301           JUNCTION        1.35          0.953        0.077
  YS02163601           JUNCTION        1.41          1.080        0.000
  YS02164001           JUNCTION        1.30          1.015        0.085
  
  
  *********************
  Node Flooding Summary
  *********************
  
  Flooding refers to all water that overflows a node, whether it ponds or not.
  --------------------------------------------------------------------------
                                                             Total   Maximum
                                 Maximum   Time of Max       Flood    Ponded
                        Hours       Rate    Occurrence      Volume     Depth
  Node                 Flooded       LPS   days hr:min    10^6 ltr    Meters
  --------------------------------------------------------------------------
  WS02006232              0.01      5.91      0  02:18       0.000     0.000
  WS02006234              0.01    119.29      0  02:48       0.000     0.000
  WS02006235              0.01     55.61      0  02:40       0.000     0.000
  WS02006238              0.01     31.61      0  02:40       0.000     0.000
  WS02006239              0.01      8.90      0  02:18       0.000     0.000
  WS02006240              0.01     10.66      0  02:18       0.000     0.000
  WS02006242              0.02     32.10      0  02:18       0.001     0.000
  WS02006243              0.01      3.52      0  02:34       0.000     0.000
  WS02006245              0.01      3.89      0  02:34       0.000     0.000
  WS02006247              0.01      3.48      0  02:18       0.000     0.000
  WS02006248              0.24     34.34      0  02:18       0.012     0.000
  WS02006249              1.56     87.73      0  03:19       0.277     0.000
  WS02006252              0.01    267.24      0  01:28       0.000     0.000
  WS02006256              1.84    345.22      0  02:20       0.724     0.000
  YS02001580              0.01     84.91      0  01:31       0.000     0.000
  YS02001583              0.01    102.29      0  01:31       0.000     0.000
  YS02001586              0.83    709.18      0  01:42       0.949     0.000
  YS02001590              0.01      6.03      0  01:31       0.000     0.000
  YS02001600              0.01      3.35      0  01:31       0.000     0.000
  YS02001601              1.06   1758.49      0  01:40       2.611     0.000
  YS02001602              0.89     62.02      0  02:04       0.182     0.000
  YS02001605              0.01      4.30      0  01:31       0.000     0.000
  YS02001610              0.79    951.48      0  01:45       1.461     0.000
  YS02001616              0.10      2.13      0  01:39       0.000     0.000
  YS02001619              0.15    155.76      0  01:41       0.051     0.000
  YS02001622              0.01    131.45      0  01:31       0.000     0.000
  YS02001625              0.72   1503.85      0  01:46       1.991     0.000
  YS02001629              0.24    442.61      0  01:37       0.193     0.000
  YS02001633              0.01      1.47      0  01:36       0.000     0.000
  YS02001644              0.29   1800.81      0  01:39       1.043     0.000
  YS02001649              0.01    196.68      0  01:35       0.003     0.000
  YS02001652              0.01      3.70      0  01:35       0.000     0.000
  YS02001655              0.01     24.46      0  01:35       0.000     0.000
  YS02001748              0.01    351.08      0  01:35       0.000     0.000
  YS02001751              0.01     29.08      0  01:35       0.000     0.000
  YS02001754              0.01     72.89      0  01:35       0.000     0.000
  YS02001757              0.01     89.84      0  01:35       0.001     0.000
  YS02001759              0.01      0.57      0  01:36       0.000     0.000
  YS02001762              0.01     18.38      0  01:35       0.000     0.000
  YS02001765              0.01     53.51      0  01:34       0.000     0.000
  YS02001767              0.01     36.89      0  01:34       0.000     0.000
  YS02001770              0.11    216.57      0  01:38       0.049     0.000
  YS02001779              0.27    851.12      0  01:41       0.504     0.000
  YS02001882              0.01      0.55      0  01:36       0.000     0.000
  YS02001884              0.01      0.59      0  01:36       0.000     0.000
  YS02001890              0.28    639.09      0  01:38       0.320     0.000
  YS02001907              0.59   2854.87      0  01:39       2.783     0.000
  YS02001915              0.01     29.94      0  01:39       0.000     0.000
  YS02001918              0.01    201.60      0  01:34       0.003     0.000
  YS02001920              0.01     60.17      0  01:34       0.000     0.000
  YS02001923              0.01     83.89      0  01:34       0.000     0.000
  YS02001926              0.01    586.24      0  01:34       0.003     0.000
  YS02001929              0.01    460.21      0  01:33       0.002     0.000
  YS02163601              0.01      0.18      0  01:36       0.000     0.000
  
  
  **********************
  Storage Volume Summary
  **********************
  
  ------------------------------------------------------------------------------------------------
                         Average    Avg   Evap  Exfil     Maximum    Max    Time of Max    Maximum
                          Volume   Pcnt   Pcnt   Pcnt      Volume   Pcnt     Occurrence    Outflow
  Storage Unit           1000 m³   Full   Loss   Loss     1000 m³   Full    days hr:min        LPS
  ------------------------------------------------------------------------------------------------
  CC-storage               1.841   28.7    0.0    0.0       4.236   66.1       0  02:31    1783.53
  JK-storage               0.010    3.6    0.0    0.0       0.150   51.6       0  00:00    2300.00
  
  
  ***********************
  Outfall Loading Summary
  ***********************
  
  -----------------------------------------------------------
                         Flow       Avg       Max       Total
                         Freq      Flow      Flow      Volume
  Outfall Node           Pcnt       LPS       LPS    10^6 ltr
  -----------------------------------------------------------
  CC-1                  56.39    683.00    683.00       6.308
  CC-2                  56.39    683.00    683.00       6.308
  JK-1                  11.01   1000.00   1000.00       1.805
  JK-2                  11.01   1000.00   1000.00       1.805
  WSC                   99.94    278.50    554.50       5.446
  -----------------------------------------------------------
  System                46.95   3644.50   3904.31      21.673
  
  
  ********************
  Link Flow Summary
  ********************
  
  -----------------------------------------------------------------------------
                                 Maximum  Time of Max   Maximum    Max/    Max/
                                  |Flow|   Occurrence   |Veloc|    Full    Full
  Link                 Type          LPS  days hr:min     m/sec    Flow   Depth
  -----------------------------------------------------------------------------
  1                    CONDUIT    554.50     0  03:17      2.83    0.19    0.30
  WS02003060WS02003069 CONDUIT    552.47     0  03:16      1.64    0.22    0.34
  WS02003066WSF200     CONDUIT    535.94     0  03:15      2.85    0.09    0.22
  WS02003067WS02003066 CONDUIT    535.94     0  03:15      1.21    0.17    0.42
  WS02003069WS02003072 CONDUIT    552.75     0  03:16      1.37    0.27    0.39
  WS02003072WS02003073 CONDUIT    552.73     0  03:17      1.43    1.19    0.37
  WS02004401WS02004402 CONDUIT    536.24     0  02:44      1.22    0.64    0.86
  WS02004402WS02004403 CONDUIT    536.54     0  02:44      1.24    0.77    0.88
  WS02004403WS02004404 CONDUIT    536.03     0  03:14      1.24    0.39    0.93
  WS02004404WS02004405 CONDUIT    536.23     0  03:14      1.45    5.25    0.96
  WS02004405WS02004406 CONDUIT    536.29     0  03:14      1.46    1.06    0.96
  WS02004406WS02004407 CONDUIT    536.18     0  03:14      1.04    0.24    0.63
  WS02004407WS02004409 CONDUIT    536.15     0  03:14      1.59    0.19    0.48
  WS02004409WS02004410 CONDUIT    536.04     0  03:13      1.06    0.69    0.67
  WS02004410WS02004411 CONDUIT    536.02     0  03:14      1.13    0.73    0.69
  WS02004411WS02004412 CONDUIT    535.98     0  03:14      1.20    0.76    0.69
  WS02004412WS02004413 CONDUIT    535.97     0  03:15      1.22    0.36    0.78
  WS02004413WS02003067 CONDUIT    535.94     0  03:15      1.11    0.23    0.59
  WS02006109WS02006110 CONDUIT    565.33     0  02:54      1.13    1.09    1.00
  WS02006110WS02006113 CONDUIT    571.86     0  03:19      1.37    0.52    0.79
  WS02006111WS02006112 CONDUIT    544.53     0  03:00      1.95    0.26    0.67
  WS02006112WS02006115 CONDUIT    550.31     0  02:56      0.85    0.32    0.87
  WS02006113WS02006111 CONDUIT    560.91     0  02:59      2.47    0.67    0.46
  WS02006115WS02006116 CONDUIT    540.37     0  02:53      1.29    0.69    0.76
  WS02006116WS02004401 CONDUIT    539.96     0  02:52      1.21    0.74    0.84
  WS02006228WS02006109 CONDUIT    561.70     0  02:54      1.12    2.45    1.00
  WS02006229WS02006228 CONDUIT    558.79     0  02:54      1.12    1.85    1.00
  WS02006230WS02006229 CONDUIT    558.15     0  02:54      1.45   12.42    1.00
  WS02006231WS02006230 CONDUIT    583.21     0  02:38      1.59    8.85    1.00
  WS02006232WS02006231 CONDUIT    592.51     0  01:35      1.55    1.24    1.00
  WS02006234WS02006232 CONDUIT    591.61     0  01:35      1.54    1.20    1.00
  WS02006235WS02006234 CONDUIT    586.07     0  01:35      1.55    6.18    1.00
  WS02006238WS02006235 CONDUIT    426.00     0  03:38      1.45    0.95    1.00
  WS02006239WS02006238 CONDUIT    423.43     0  02:44      1.13    1.35    1.00
  WS02006240WS02006239 CONDUIT    424.83     0  03:41      1.24    1.34    1.00
  WS02006242WS02006240 CONDUIT    422.40     0  03:41      1.16    1.68    1.00
  WS02006243WS02006242 CONDUIT    423.40     0  03:37      1.38    0.90    1.00
  WS02006245WS02006243 CONDUIT    424.74     0  03:37      1.44    1.26    1.00
  WS02006247WS02006245 CONDUIT    425.36     0  03:41      1.43    3.37    1.00
  WS02006248WS02006247 CONDUIT    426.23     0  03:41      1.43    0.93    1.00
  WS02006249WS02006248 CONDUIT    427.16     0  03:41      1.36    2.34    1.00
  WS02006251WS02006249 CONDUIT    500.40     0  01:29      2.08    1.44    1.00
  WS02006252WS02006251 CONDUIT    415.21     0  03:15      4.89    1.52    1.00
  WS02006256WS02006235 CONDUIT    288.91     0  00:00      4.23    3.06    1.00
  WSF200WS02003060     CONDUIT    535.93     0  03:16      2.06    0.12    0.28
  YS02001580YS02001583 CONDUIT    125.52     0  01:31      0.78    0.49    1.00
  YS02001583YS02001586 CONDUIT    180.67     0  01:31      0.79    0.27    1.00
  YS02001586YS02001590 CONDUIT    318.37     0  02:16      1.27    0.56    1.00
  YS02001590YS02001593 CONDUIT    318.42     0  02:16      1.13    2.00    1.00
  YS02001593YS02001596 CONDUIT    318.17     0  02:11      1.74    0.50    1.00
  YS02001596YS02001600 CONDUIT    318.02     0  02:16      1.25    0.62    1.00
  YS02001600YS02001601 CONDUIT    318.03     0  02:04      1.12    0.55    1.00
  YS02001601YS02001602 CONDUIT    559.90     0  01:31      1.98    2.02    1.00
  YS02001602YS02001605 CONDUIT    559.87     0  01:31      1.98   11.85    1.00
  YS02001605YS02001607 CONDUIT    559.78     0  01:31      1.98    3.07    1.00
  YS02001607YS02001610 CONDUIT    547.77     0  01:31      0.70    0.52    1.00
  YS02001610YS02001613 CONDUIT    615.34     0  01:46      0.78    0.71    1.00
  YS02001613YS02001616 CONDUIT    614.87     0  01:46      0.78    0.53    1.00
  YS02001616YS02001619 CONDUIT    614.95     0  01:46      0.78    1.07    1.00
  YS02001619YS02001622 CONDUIT   1053.91     0  01:43      1.34    1.55    1.00
  YS02001622YS02001625 CONDUIT   1053.66     0  01:42      1.34    0.56    1.00
  YS02001625YS02001629 CONDUIT    926.89     0  01:33      1.18    0.44    1.00
  YS02001629YS02163301 CONDUIT    926.76     0  01:32      1.18    1.14    1.00
  YS02001633YS02163601 CONDUIT   1442.37     0  01:33      1.84    1.51    1.00
  YS02001641YS02001644 CONDUIT   1440.84     0  01:33      1.83    4.66    1.00
  YS02001644YS02001647 CONDUIT   1913.37     0  01:33      2.45    1.12    1.00
  YS02001647YS02001649 CONDUIT   1892.70     0  01:33      2.43    1.00    1.00
  YS02001649YS02001757 CONDUIT   2233.14     0  01:33      2.85    1.36    1.00
  YS02001652YS02001649 CONDUIT   1204.99     0  01:38      1.53    0.60    1.00
  YS02001655YS02001652 CONDUIT   1204.45     0  01:38      1.53    0.58    1.00
  YS02001658YS02001655 CONDUIT   1204.27     0  01:38      2.00    0.51    1.00
  YS02001661YS02001658 CONDUIT   1204.18     0  01:38      2.42    0.47    1.00
  YS02001664YS02001661 CONDUIT   1204.40     0  01:38      2.50    0.38    1.00
  YS02001745YS02001748 CONDUIT    784.60     0  01:38      2.35    0.30    1.00
  YS02001748YS02001751 CONDUIT    784.43     0  01:38      1.83    0.40    1.00
  YS02001751YS02001754 CONDUIT    784.58     0  01:38      1.56    0.38    1.00
  YS02001754YS02001757 CONDUIT    784.60     0  01:38      1.00    0.32    1.00
  YS02001757CaochengTiaoxuchi CONDUIT   3588.03     0  01:41      6.04    1.55    1.00
  YS02001759YS02001757 CONDUIT   1564.31     0  01:35      1.99    1.11    1.00
  YS02001762YS02001759 CONDUIT    874.20     0  01:35      1.11    1.01    1.00
  YS02001765YS02001762 CONDUIT    875.57     0  01:35      1.11    0.82    1.00
  YS02001767YS02001765 CONDUIT    874.26     0  01:35      1.11    1.10    1.00
  YS02001770YS02001767 CONDUIT    876.27     0  01:35      1.12    3.47    1.00
  YS02001774YS02001770 CONDUIT    851.17     0  01:41      1.08    0.54    1.00
  YS02001779YS02001774 CONDUIT    851.35     0  01:41      1.08    0.43    1.00
  YS02001783YS02001784 CONDUIT   1174.16     0  01:36      2.34    1.62    1.00
  YS02001784YS02001785 CONDUIT   1175.47     0  01:36      2.34    2.74    1.00
  YS02001786YS02001788 CONDUIT   1175.85     0  01:36      2.50    2.27    0.89
  YS02001788YS02001790 CONDUIT   1187.41     0  01:37      2.73    0.88    0.85
  YS02001790YS02001791 CONDUIT   1297.37     0  01:37      3.42    1.41    0.71
  YS02001791YS02001793 CONDUIT   1265.53     0  01:37      6.79    0.54    0.43
  YS02001793JiankangQianchi CONDUIT   1402.02     0  01:37     14.90    0.11    0.50
  YS02001882YS02001884 CONDUIT     52.44     0  01:32      0.19    0.06    1.00
  YS02001884YS02001887 CONDUIT    118.57     0  01:31      0.15    0.16    1.00
  YS02001887YS02001890 CONDUIT   1155.48     0  01:38      1.47    1.98    1.00
  YS02001890YS02001895 CONDUIT    521.36     0  01:33      0.66    0.24    1.00
  YS02001895YS02001898 CONDUIT    521.85     0  01:33      0.66    0.91    1.00
  YS02001898YS02001901 CONDUIT    522.67     0  01:33      0.67    0.34    1.00
  YS02001901YS02001904 CONDUIT    523.57     0  01:33      0.67    0.81    1.00
  YS02001904YS02001907 CONDUIT    525.19     0  01:33      0.67    0.18    1.00
  YS02001907YS02006553 CONDUIT    792.34     0  02:09      0.88    0.93    1.00
  YS02001910YS02001907 CONDUIT   1983.80     0  01:40      2.53    1.12    1.00
  YS02001915YS02001910 CONDUIT   1983.32     0  01:40      2.53    0.98    1.00
  YS02001918YS02001915 CONDUIT    661.87     0  01:39      0.84    0.37    1.00
  YS02001920YS02001918 CONDUIT    658.08     0  01:39      0.84    0.64    1.00
  YS02001923YS02001920 CONDUIT    650.61     0  01:39      0.83    0.29    1.00
  YS02001926YS02001923 CONDUIT    656.12     0  01:33      1.08    0.94    1.00
  YS02001929YS02001926 CONDUIT    649.14     0  01:41      1.18    0.31    1.00
  YS02006553YS02006556 CONDUIT    791.94     0  02:09      1.01    0.68    1.00
  YS02006556YS02006558 CONDUIT    792.46     0  02:09      1.01    0.63    1.00
  YS02006558YS02006561 CONDUIT   1174.67     0  01:36      4.15    2.60    1.00
  YS02006561YS02001783 CONDUIT   1174.02     0  01:36      2.34    0.61    1.00
  YS02163301YS02001633 CONDUIT    926.95     0  01:32      1.18    0.87    1.00
  YS02163601YS02164001 CONDUIT   1441.27     0  01:33      1.84    1.28    1.00
  YS02164001YS02001641 CONDUIT   1440.35     0  01:33      1.83    1.97    1.00
  CC-R1                PUMP       683.00     0  00:00              1.00
  CC-R2                PUMP       683.00     0  00:00              1.00
  CC-S1                PUMP       200.00     0  00:00              1.00
  CC-S2                PUMP       200.00     0  00:00              1.00
  JK-R1                PUMP      1000.00     0  00:00              1.00
  JK-R2                PUMP      1000.00     0  00:00              1.00
  JK-S                 PUMP       300.00     0  00:00              1.00
  
  
  ***************************
  Flow Classification Summary
  ***************************
  
  -------------------------------------------------------------------------------------
                      Adjusted    ---------- Fraction of Time in Flow Class ---------- 
                       /Actual         Up    Down  Sub   Sup   Up    Down  Norm  Inlet 
  Conduit               Length    Dry  Dry   Dry   Crit  Crit  Crit  Crit  Ltd   Ctrl  
  -------------------------------------------------------------------------------------
  1                       1.00   0.00  0.00  0.00  0.00  1.00  0.00  0.00  0.36  0.00
  WS02003060WS02003069    1.00   0.00  0.00  0.00  0.98  0.02  0.00  0.00  0.70  0.00
  WS02003066WSF200        1.00   0.05  0.00  0.00  0.00  0.95  0.00  0.00  0.79  0.00
  WS02003067WS02003066    1.00   0.05  0.00  0.00  0.95  0.00  0.00  0.00  0.00  0.00
  WS02003069WS02003072    1.00   0.00  0.00  0.00  0.99  0.01  0.00  0.00  0.70  0.00
  WS02003072WS02003073    1.00   0.00  0.00  0.00  0.00  0.00  0.00  1.00  0.00  0.00
  WS02004401WS02004402    1.00   0.02  0.00  0.00  0.98  0.00  0.00  0.00  0.00  0.00
  WS02004402WS02004403    1.00   0.02  0.00  0.00  0.98  0.00  0.00  0.00  0.00  0.00
  WS02004403WS02004404    1.00   0.00  0.03  0.00  0.97  0.00  0.00  0.00  0.00  0.00
  WS02004404WS02004405    1.00   0.00  0.00  0.00  1.00  0.00  0.00  0.00  0.01  0.00
  WS02004405WS02004406    1.00   0.00  0.00  0.00  1.00  0.00  0.00  0.00  0.00  0.00
  WS02004406WS02004407    1.00   0.00  0.03  0.00  0.97  0.00  0.00  0.00  0.00  0.00
  WS02004407WS02004409    1.00   0.03  0.00  0.00  0.95  0.01  0.00  0.00  0.95  0.00
  WS02004409WS02004410    1.00   0.03  0.00  0.00  0.96  0.00  0.00  0.00  0.00  0.00
  WS02004410WS02004411    1.00   0.04  0.00  0.00  0.96  0.00  0.00  0.00  0.00  0.00
  WS02004411WS02004412    1.00   0.04  0.00  0.00  0.96  0.00  0.00  0.00  0.00  0.00
  WS02004412WS02004413    1.00   0.04  0.00  0.00  0.96  0.00  0.00  0.00  0.00  0.00
  WS02004413WS02003067    1.00   0.04  0.01  0.00  0.00  0.00  0.95  0.00  0.00  0.00
  WS02006109WS02006110    1.00   0.00  0.01  0.00  0.98  0.00  0.01  0.00  0.00  0.00
  WS02006110WS02006113    1.00   0.01  0.01  0.00  0.98  0.00  0.00  0.00  0.00  0.00
  WS02006111WS02006112    1.00   0.02  0.00  0.00  0.98  0.00  0.00  0.00  0.98  0.00
  WS02006112WS02006115    1.00   0.02  0.00  0.00  0.97  0.00  0.00  0.00  0.00  0.00
  WS02006113WS02006111    1.00   0.02  0.00  0.00  0.00  0.98  0.00  0.00  0.12  0.00
  WS02006115WS02006116    1.00   0.02  0.00  0.00  0.97  0.00  0.00  0.01  0.00  0.00
  WS02006116WS02004401    1.00   0.02  0.00  0.00  0.98  0.00  0.00  0.00  0.00  0.00
  WS02006228WS02006109    1.00   0.00  0.00  0.00  1.00  0.00  0.00  0.00  0.00  0.00
  WS02006229WS02006228    1.00   0.00  0.00  0.00  0.99  0.00  0.00  0.01  0.00  0.00
  WS02006230WS02006229    1.00   0.00  0.00  0.00  0.99  0.00  0.00  0.01  0.02  0.00
  WS02006231WS02006230    1.00   0.00  0.00  0.00  0.31  0.00  0.69  0.00  0.00  0.00
  WS02006232WS02006231    1.00   0.00  0.00  0.00  0.98  0.00  0.02  0.00  0.00  0.00
  WS02006234WS02006232    1.00   0.00  0.00  0.00  1.00  0.00  0.00  0.00  0.05  0.00
  WS02006235WS02006234    1.00   0.00  0.00  0.00  0.93  0.00  0.07  0.00  0.00  0.00
  WS02006238WS02006235    1.00   0.00  0.00  0.00  0.99  0.01  0.00  0.00  0.00  0.00
  WS02006239WS02006238    1.00   0.00  0.00  0.00  1.00  0.00  0.00  0.00  0.24  0.00
  WS02006240WS02006239    1.00   0.00  0.00  0.00  0.63  0.00  0.00  0.36  0.04  0.00
  WS02006242WS02006240    1.00   0.00  0.00  0.00  1.00  0.00  0.00  0.00  0.03  0.00
  WS02006243WS02006242    1.00   0.00  0.00  0.00  0.99  0.00  0.00  0.00  0.62  0.00
  WS02006245WS02006243    1.00   0.00  0.00  0.00  0.47  0.00  0.00  0.53  0.01  0.00
  WS02006247WS02006245    1.00   0.00  0.00  0.00  0.99  0.00  0.00  0.01  0.00  0.00
  WS02006248WS02006247    1.00   0.00  0.00  0.00  0.99  0.00  0.00  0.00  0.12  0.00
  WS02006249WS02006248    1.00   0.00  0.00  0.00  0.36  0.00  0.64  0.00  0.00  0.00
  WS02006251WS02006249    1.00   0.00  0.00  0.00  1.00  0.00  0.00  0.00  0.65  0.00
  WS02006252WS02006251    1.00   0.00  0.67  0.00  0.22  0.00  0.11  0.00  0.00  0.00
  WS02006256WS02006235    1.00   0.00  0.00  0.00  0.98  0.02  0.00  0.00  0.00  0.00
  WSF200WS02003060        1.00   0.00  0.05  0.00  0.47  0.48  0.00  0.00  0.64  0.00
  YS02001580YS02001583    1.00   0.19  0.56  0.00  0.25  0.00  0.00  0.00  0.65  0.00
  YS02001583YS02001586    1.00   0.40  0.29  0.00  0.31  0.00  0.00  0.00  0.65  0.00
  YS02001586YS02001590    1.00   0.13  0.00  0.00  0.46  0.04  0.00  0.38  0.33  0.00
  YS02001590YS02001593    1.00   0.13  0.01  0.00  0.18  0.00  0.69  0.00  0.00  0.00
  YS02001593YS02001596    1.00   0.13  0.00  0.00  0.20  0.01  0.00  0.66  0.02  0.00
  YS02001596YS02001600    1.00   0.13  0.00  0.00  0.24  0.01  0.00  0.61  0.03  0.00
  YS02001600YS02001601    1.00   0.13  0.01  0.00  0.86  0.00  0.00  0.00  0.57  0.00
  YS02001601YS02001602    1.00   0.13  0.01  0.00  0.87  0.00  0.00  0.00  0.00  0.00
  YS02001602YS02001605    1.00   0.13  0.00  0.00  0.87  0.00  0.00  0.00  0.00  0.00
  YS02001605YS02001607    1.00   0.13  0.00  0.00  0.87  0.00  0.00  0.00  0.00  0.00
  YS02001607YS02001610    1.00   0.13  0.00  0.00  0.86  0.00  0.00  0.00  0.01  0.00
  YS02001610YS02001613    1.00   0.13  0.00  0.00  0.87  0.00  0.00  0.00  0.00  0.00
  YS02001613YS02001616    1.00   0.13  0.00  0.00  0.87  0.00  0.00  0.00  0.00  0.00
  YS02001616YS02001619    1.00   0.13  0.00  0.00  0.87  0.00  0.00  0.00  0.00  0.00
  YS02001619YS02001622    1.00   0.13  0.00  0.00  0.87  0.00  0.00  0.00  0.27  0.00
  YS02001622YS02001625    1.00   0.13  0.00  0.00  0.87  0.00  0.00  0.00  0.02  0.00
  YS02001625YS02001629    1.00   0.13  0.03  0.00  0.21  0.00  0.62  0.00  0.00  0.00
  YS02001629YS02163301    1.00   0.14  0.01  0.00  0.85  0.00  0.00  0.00  0.00  0.00
  YS02001633YS02163601    1.00   0.00  0.01  0.00  0.99  0.00  0.00  0.00  0.14  0.00
  YS02001641YS02001644    1.00   0.00  0.01  0.00  0.99  0.00  0.00  0.00  0.00  0.00
  YS02001644YS02001647    1.00   0.00  0.16  0.00  0.84  0.00  0.00  0.00  0.00  0.00
  YS02001647YS02001649    1.00   0.00  0.16  0.00  0.56  0.29  0.00  0.00  0.55  0.00
  YS02001649YS02001757    1.00   0.00  0.00  0.00  0.69  0.30  0.00  0.00  0.44  0.00
  YS02001652YS02001649    1.00   0.00  0.00  0.00  0.98  0.02  0.00  0.00  0.70  0.00
  YS02001655YS02001652    1.00   0.00  0.00  0.00  0.23  0.01  0.00  0.76  0.05  0.00
  YS02001658YS02001655    1.00   0.00  0.14  0.00  0.70  0.16  0.00  0.00  0.65  0.00
  YS02001661YS02001658    1.00   0.14  0.00  0.00  0.53  0.33  0.00  0.00  0.71  0.00
  YS02001664YS02001661    1.00   0.13  0.00  0.00  0.72  0.15  0.00  0.00  0.84  0.00
  YS02001745YS02001748    1.00   0.00  0.00  0.00  0.14  0.01  0.00  0.85  0.08  0.00
  YS02001748YS02001751    1.00   0.00  0.00  0.00  0.86  0.14  0.00  0.00  0.77  0.00
  YS02001751YS02001754    1.00   0.00  0.00  0.00  0.20  0.00  0.00  0.79  0.02  0.00
  YS02001754YS02001757    1.00   0.00  0.00  0.00  1.00  0.00  0.00  0.00  0.78  0.00
  YS02001757CaochengTiaoxuchi    1.00   0.00  0.00  0.00  0.85  0.15  0.00  0.00  0.72  0.00
  YS02001759YS02001757    1.00   0.00  0.00  0.00  0.99  0.01  0.00  0.00  0.60  0.00
  YS02001762YS02001759    1.00   0.00  0.00  0.00  1.00  0.00  0.00  0.00  0.03  0.00
  YS02001765YS02001762    1.00   0.00  0.00  0.00  1.00  0.00  0.00  0.00  0.70  0.00
  YS02001767YS02001765    1.00   0.00  0.00  0.00  1.00  0.00  0.00  0.00  0.00  0.00
  YS02001770YS02001767    1.00   0.00  0.00  0.00  1.00  0.00  0.00  0.00  0.00  0.00
  YS02001774YS02001770    1.00   0.00  0.13  0.00  0.72  0.00  0.15  0.00  0.02  0.00
  YS02001779YS02001774    1.00   0.00  0.00  0.00  1.00  0.00  0.00  0.00  0.75  0.00
  YS02001783YS02001784    1.00   0.00  0.16  0.00  0.84  0.00  0.00  0.00  0.54  0.00
  YS02001784YS02001785    1.00   0.00  0.00  0.00  1.00  0.00  0.00  0.00  0.15  0.00
  YS02001786YS02001788    1.00   0.00  0.00  0.00  0.80  0.20  0.00  0.00  0.00  0.00
  YS02001788YS02001790    1.00   0.00  0.00  0.00  0.20  0.80  0.00  0.00  0.77  0.00
  YS02001790YS02001791    1.00   0.00  0.00  0.00  0.01  0.99  0.00  0.00  0.16  0.00
  YS02001791YS02001793    1.00   0.00  0.00  0.00  0.00  1.00  0.00  0.00  0.01  0.00
  YS02001793JiankangQianchi    1.00   0.00  0.00  0.00  0.61  0.39  0.00  0.00  0.93  0.00
  YS02001882YS02001884    1.00   0.14  0.00  0.00  0.85  0.00  0.00  0.00  0.00  0.00
  YS02001884YS02001887    1.00   0.06  0.05  0.00  0.89  0.00  0.00  0.00  0.00  0.00
  YS02001887YS02001890    1.00   0.00  0.00  0.00  0.97  0.00  0.03  0.00  0.00  0.00
  YS02001890YS02001895    1.00   0.00  0.15  0.00  0.85  0.00  0.00  0.00  0.00  0.00
  YS02001895YS02001898    1.00   0.15  0.00  0.00  0.84  0.00  0.01  0.00  0.00  0.00
  YS02001898YS02001901    1.00   0.15  0.00  0.00  0.85  0.00  0.00  0.00  0.00  0.00
  YS02001901YS02001904    1.00   0.15  0.00  0.00  0.85  0.00  0.00  0.00  0.00  0.00
  YS02001904YS02001907    1.00   0.00  0.15  0.00  0.85  0.00  0.00  0.00  0.00  0.00
  YS02001907YS02006553    1.00   0.00  0.02  0.00  0.98  0.00  0.00  0.00  0.00  0.00
  YS02001910YS02001907    1.00   0.00  0.00  0.00  0.97  0.00  0.00  0.03  0.12  0.00
  YS02001915YS02001910    1.00   0.00  0.00  0.00  0.97  0.03  0.00  0.00  0.13  0.00
  YS02001918YS02001915    1.00   0.00  0.01  0.00  0.98  0.02  0.00  0.00  0.69  0.00
  YS02001920YS02001918    1.00   0.00  0.01  0.00  0.99  0.00  0.00  0.00  0.00  0.00
  YS02001923YS02001920    1.00   0.00  0.00  0.00  1.00  0.00  0.00  0.00  0.88  0.00
  YS02001926YS02001923    1.00   0.00  0.07  0.00  0.10  0.00  0.83  0.00  0.00  0.00
  YS02001929YS02001926    1.00   0.00  0.13  0.00  0.87  0.00  0.00  0.00  0.78  0.00
  YS02006553YS02006556    1.00   0.01  0.00  0.00  0.99  0.00  0.00  0.00  0.03  0.00
  YS02006556YS02006558    1.00   0.00  0.00  0.00  1.00  0.00  0.00  0.00  0.00  0.00
  YS02006558YS02006561    1.00   0.16  0.00  0.00  0.09  0.75  0.00  0.00  0.16  0.00
  YS02006561YS02001783    1.00   0.16  0.00  0.00  0.13  0.71  0.00  0.00  0.64  0.00
  YS02163301YS02001633    1.00   0.00  0.14  0.00  0.86  0.00  0.00  0.00  0.00  0.00
  YS02163601YS02164001    1.00   0.00  0.08  0.00  0.92  0.00  0.00  0.00  0.00  0.00
  YS02164001YS02001641    1.00   0.01  0.08  0.00  0.92  0.00  0.00  0.00  0.05  0.00
  
  
  *************************
  Conduit Surcharge Summary
  *************************
  
  ----------------------------------------------------------------------------
                                                           Hours        Hours 
                         --------- Hours Full --------   Above Full   Capacity
  Conduit                Both Ends  Upstream  Dnstream   Normal Flow   Limited
  ----------------------------------------------------------------------------
  WS02003072WS02003073        0.01      0.01      0.01      2.00         0.01
  WS02004404WS02004405        0.01      0.01      0.01      2.91         0.01
  WS02004405WS02004406        0.01      0.01      0.01      1.36         0.01
  WS02006109WS02006110        0.57      0.57      2.36      0.92         0.01
  WS02006110WS02006113        0.01      0.01      2.34      0.01         0.01
  WS02006111WS02006112        0.01      0.01      2.39      0.01         0.01
  WS02006112WS02006115        0.01      0.01      1.56      0.01         0.01
  WS02006228WS02006109        2.29      2.36      2.29      2.60         2.28
  WS02006229WS02006228        2.27      2.30      2.27      2.52         2.25
  WS02006230WS02006229        2.43      2.47      2.43      3.24         2.43
  WS02006231WS02006230        0.67      0.67      1.62      2.99         0.01
  WS02006232WS02006231        1.34      1.34      2.37      1.41         0.01
  WS02006234WS02006232        2.06      2.06      2.37      1.36         1.21
  WS02006235WS02006234        1.76      1.82      2.03      2.91         0.14
  WS02006238WS02006235        2.11      2.11      2.39      0.01         0.07
  WS02006239WS02006238        2.24      2.38      2.24      2.48         1.85
  WS02006240WS02006239        2.21      2.32      2.22      2.48         1.72
  WS02006242WS02006240        2.31      2.31      2.44      2.55         0.03
  WS02006243WS02006242        2.33      2.33      2.41      0.01         0.35
  WS02006245WS02006243        2.32      2.33      2.32      1.97         1.34
  WS02006247WS02006245        2.32      2.35      2.32      2.60         2.15
  WS02006248WS02006247        2.32      2.32      2.34      0.01         0.38
  WS02006249WS02006248        2.31      2.31      2.32      2.59         0.01
  WS02006251WS02006249        2.32      2.33      2.32      2.55         2.09
  WS02006252WS02006251        2.60      2.60      2.60      2.60         0.01
  WS02006256WS02006235        2.71      2.95      5.48      1.88         0.03
  YS02001580YS02001583        1.00      1.00      1.06      0.01         0.01
  YS02001583YS02001586        1.01      1.01      1.16      0.01         0.01
  YS02001586YS02001590        1.17      1.17      1.26      0.01         0.01
  YS02001590YS02001593        1.26      1.26      1.28      1.37         0.01
  YS02001593YS02001596        1.27      1.27      1.39      0.01         0.01
  YS02001596YS02001600        1.45      1.45      1.59      0.01         0.01
  YS02001600YS02001601        1.64      1.64      1.82      0.01         0.01
  YS02001601YS02001602        1.74      1.74      1.85      1.62         0.01
  YS02001602YS02001605        1.71      1.71      1.74      2.48         0.01
  YS02001605YS02001607        1.68      1.71      1.68      1.79         1.68
  YS02001607YS02001610        1.21      1.21      1.25      0.01         0.01
  YS02001610YS02001613        1.20      1.20      1.25      0.01         0.01
  YS02001613YS02001616        1.15      1.15      1.20      0.01         0.01
  YS02001616YS02001619        1.13      1.13      1.15      0.14         0.11
  YS02001619YS02001622        1.13      1.13      1.13      1.30         1.09
  YS02001622YS02001625        1.13      1.13      1.35      0.01         0.01
  YS02001625YS02001629        1.05      1.05      1.35      0.01         0.01
  YS02001629YS02163301        1.34      1.34      1.35      0.37         0.34
  YS02001633YS02163601        1.38      1.38      1.41      0.63         0.62
  YS02001641YS02001644        1.26      1.30      1.26      1.86         1.24
  YS02001644YS02001647        0.98      0.98      1.26      0.05         0.01
  YS02001647YS02001649        0.98      0.98      1.15      0.01         0.01
  YS02001649YS02001757        1.14      1.15      1.22      0.45         0.42
  YS02001652YS02001649        0.89      0.89      1.15      0.01         0.01
  YS02001655YS02001652        0.53      0.53      0.84      0.01         0.01
  YS02001658YS02001655        0.33      0.33      0.54      0.01         0.01
  YS02001661YS02001658        0.15      0.15      0.33      0.01         0.01
  YS02001664YS02001661        0.01      0.01      0.18      0.01         0.01
  YS02001745YS02001748        0.01      0.01      0.20      0.01         0.01
  YS02001748YS02001751        0.27      0.27      0.39      0.01         0.01
  YS02001751YS02001754        0.39      0.39      0.63      0.01         0.01
  YS02001754YS02001757        0.73      0.73      1.22      0.01         0.01
  YS02001757CaochengTiaoxuchi        0.91      1.22      1.43      0.66         0.32
  YS02001759YS02001757        1.09      1.09      1.22      0.17         0.17
  YS02001762YS02001759        1.05      1.05      1.09      0.01         0.04
  YS02001765YS02001762        0.97      0.97      1.05      0.01         0.01
  YS02001767YS02001765        0.91      0.91      0.97      0.03         0.07
  YS02001770YS02001767        0.91      0.91      0.91      0.82         0.72
  YS02001774YS02001770        0.86      0.86      1.02      0.01         0.01
  YS02001779YS02001774        0.63      0.63      1.02      0.01         0.01
  YS02001783YS02001784        0.80      0.84      0.80      1.02         0.80
  YS02001784YS02001785        0.67      0.80      0.67      1.38         0.67
  YS02001786YS02001788        0.01      0.68      0.01      1.18         0.01
  YS02001790YS02001791        0.01      0.01      0.01      0.79         0.01
  YS02001882YS02001884        0.76      0.76      0.78      0.01         0.01
  YS02001884YS02001887        0.81      0.81      0.82      0.01         0.01
  YS02001887YS02001890        0.84      0.84      0.85      0.24         0.01
  YS02001890YS02001895        0.75      0.75      0.88      0.01         0.01
  YS02001895YS02001898        0.74      0.74      0.75      0.01         0.01
  YS02001898YS02001901        0.75      0.75      0.80      0.01         0.01
  YS02001901YS02001904        0.79      0.79      0.80      0.01         0.01
  YS02001904YS02001907        0.79      0.79      1.14      0.01         0.01
  YS02001907YS02006553        1.40      1.40      1.50      0.01         0.01
  YS02001910YS02001907        0.87      0.87      1.10      0.11         0.11
  YS02001915YS02001910        0.76      0.76      0.87      0.01         0.01
  YS02001918YS02001915        0.66      0.66      0.76      0.01         0.01
  YS02001920YS02001918        0.66      0.66      0.67      0.01         0.01
  YS02001923YS02001920        0.60      0.60      0.67      0.01         0.01
  YS02001926YS02001923        0.26      0.26      0.29      0.01         0.01
  YS02001929YS02001926        0.13      0.14      0.29      0.01         0.01
  YS02006553YS02006556        0.98      0.98      1.13      0.01         0.01
  YS02006556YS02006558        1.05      1.05      1.18      0.01         0.01
  YS02006558YS02006561        0.70      0.97      0.70      1.32         0.70
  YS02006561YS02001783        0.62      0.62      0.84      0.01         0.01
  YS02163301YS02001633        1.35      1.35      1.39      0.01         0.01
  YS02163601YS02164001        1.30      1.30      1.41      0.05         0.01
  YS02164001YS02001641        1.30      1.30      1.30      1.09         0.98
  
  
  ***************
  Pumping Summary
  ***************
  
  ---------------------------------------------------------------------------------------------------------
                                                  Min       Avg       Max     Total     Power    % Time Off
                        Percent   Number of      Flow      Flow      Flow    Volume     Usage    Pump Curve
  Pump                 Utilized   Start-Ups       LPS       LPS       LPS  10^6 ltr     Kw-hr    Low   High
  ---------------------------------------------------------------------------------------------------------
  CC-R1                   32.40           2      0.00    683.00    683.00     6.306    111.63    0.0   44.4
  CC-R2                   32.40           2      0.00    683.00    683.00     6.306    111.63    0.0   44.4
  CC-S1                   32.81           2      0.00    200.00    200.00     1.870     12.16    0.0    8.5
  CC-S2                   32.81           2      0.00    200.00    200.00     1.870     12.16    0.0    8.5
  JK-R1                    6.40          83      0.00   1000.00   1000.00     1.823      5.68    0.0    0.0
  JK-R2                    6.40          83      0.00   1000.00   1000.00     1.823      5.68    0.0    0.0
  JK-S                    23.28         114      0.00    300.00    300.00     1.991     44.20    0.0    0.0
  

  Analysis begun on:  Tue Apr 22 10:17:55 2025
  Analysis ended on:  Tue Apr 22 10:17:56 2025
  Total elapsed time: 00:00:01