
  EPA STORM WATER MANAGEMENT MODEL - VERSION 5.2 (Build 5.2.4)
  PYSWMM TOOLKIT API - VERSION v1.0 (2023-11-27)
  ------------------------------------------------------------

  WARNING 04: minimum elevation drop used for Conduit WS02004404WS02004405
  WARNING 03: negative offset ignored for Link YS02001904YS02001907
  
  ****************
  Analysis Options
  ****************
  Flow Units ............... LPS
  Process Models:
    Rainfall/Runoff ........ YES
    RDII ................... NO
    Snowmelt ............... NO
    Groundwater ............ NO
    Flow Routing ........... YES
    Ponding Allowed ........ NO
    Water Quality .......... NO
  Infiltration Method ...... HORTON
  Flow Routing Method ...... DYNWAVE
  Surcharge Method ......... EXTRAN
  Starting Date ............ 08/28/2015 08:00:00
  Ending Date .............. 08/28/2015 16:00:00
  Antecedent Dry Days ...... 8.0
  Report Time Step ......... 00:01:00
  Wet Time Step ............ 00:01:00
  Dry Time Step ............ 00:01:00
  Routing Time Step ........ 30.00 sec
  Variable Time Step ....... YES
  Maximum Trials ........... 8
  Number of Threads ........ 4
  Head Tolerance ........... 0.001500 m
  
  
  **************************        Volume         Depth
  Runoff Quantity Continuity     hectare-m            mm
  **************************     ---------       -------
  Total Precipitation ......         2.232        67.282
  Evaporation Loss .........         0.000         0.000
  Infiltration Loss ........         0.102         3.062
  Surface Runoff ...........         2.098        63.236
  Final Storage ............         0.033         0.997
  Continuity Error (%) .....        -0.020
  
  
  **************************        Volume        Volume
  Flow Routing Continuity        hectare-m      10^6 ltr
  **************************     ---------     ---------
  Dry Weather Inflow .......         0.025         0.248
  Wet Weather Inflow .......         2.097        20.972
  Groundwater Inflow .......         0.000         0.000
  RDII Inflow ..............         0.000         0.000
  External Inflow ..........         0.083         0.825
  External Outflow .........         1.765        17.654
  Flooding Loss ............         0.625         6.249
  Evaporation Loss .........         0.000         0.000
  Exfiltration Loss ........         0.000         0.000
  Initial Stored Volume ....         0.243         2.431
  Final Stored Volume ......         0.067         0.666
  Continuity Error (%) .....        -0.384
  
  
  *************************
  Highest Continuity Errors
  *************************
  Node YS02001884 (5.30%)
  Node YS02001583 (-4.51%)
  Node WS02006256 (-3.63%)
  
  
  ***************************
  Time-Step Critical Elements
  ***************************
  Link WS02006238WS02006235 (28.78%)
  Link WS02004404WS02004405 (21.70%)
  Link WS02003066WSF200 (13.09%)
  Link YS02001791YS02001793 (6.90%)
  Link YS02006556YS02006558 (5.50%)
  
  
  ********************************
  Highest Flow Instability Indexes
  ********************************
  Link WS02006113WS02006111 (37)
  Link WS02006252WS02006251 (29)
  Link WS02006238WS02006235 (23)
  Link WS02004404WS02004405 (22)
  Link WS02006256WS02006235 (21)
  
  
  *********************************
  Most Frequent Nonconverging Nodes
  *********************************
  Node CC-1 (31.67%)
  Node CC-2 (31.67%)
  Node JK-1 (31.67%)
  Node JK-2 (31.67%)
  Node WSC (31.67%)
  
  
  *************************
  Routing Time Step Summary
  *************************
  Minimum Time Step           :     0.00 sec
  Average Time Step           :     2.85 sec
  Maximum Time Step           :     6.43 sec
  % of Time in Steady State   :     0.00
  Average Iterations per Step :     4.29
  % of Steps Not Converging   :    31.67
  Time Step Frequencies       :
     30.000 - 13.228 sec      :     0.00 %
     13.228 -  5.833 sec      :    12.32 %
      5.833 -  2.572 sec      :    33.00 %
      2.572 -  1.134 sec      :    37.26 %
      1.134 -  0.500 sec      :    17.41 %
  
  
  ***************************
  Subcatchment Runoff Summary
  ***************************
  
  ------------------------------------------------------------------------------------------------------------------------------
                            Total      Total      Total      Total     Imperv       Perv      Total       Total     Peak  Runoff
                           Precip      Runon       Evap      Infil     Runoff     Runoff     Runoff      Runoff   Runoff   Coeff
  Subcatchment                 mm         mm         mm         mm         mm         mm         mm    10^6 ltr      LPS
  ------------------------------------------------------------------------------------------------------------------------------
  sub60                     67.28       0.00       0.00       1.83      58.00       6.25      64.25        0.84   566.92   0.955
  sub61                     67.28       0.00       0.00       2.65      54.71       8.79      63.50        1.17   788.45   0.944
  sub62                     67.28       0.00       0.00       1.22      60.61       4.17      64.78        1.77  1106.97   0.963
  sub63                     67.28       0.00       0.00       4.92      46.80      14.60      61.40        1.39   892.38   0.913
  sub64                     67.28       0.00       0.00       2.48      55.98       7.61      63.59        1.53   913.70   0.945
  sub65                     67.28       0.00       0.00       2.15      57.28       6.60      63.88        1.76  1023.02   0.949
  sub66                     67.28       0.00       0.00       6.11      46.69      13.41      60.10        2.80  1363.18   0.893
  sub67                     67.28       0.00       0.00       1.17      60.66       4.21      64.87        1.21   850.81   0.964
  sub68                     67.28       0.00       0.00       2.20      56.67       7.22      63.90        1.76  1134.23   0.950
  sub69                     67.28       0.00       0.00       1.98      57.08       8.12      65.19        2.41  1359.68   0.969
  sub70                     67.28       0.00       0.00       6.61      44.24      16.27      60.51        1.75   766.56   0.899
  sub71                     67.28       0.00       0.00       1.25      60.57       4.13      64.70        1.69   987.16   0.962
  sub72                     67.28       0.00       0.00       1.11      61.16       3.60      64.76        0.89   479.98   0.963
  
  
  ******************
  Node Depth Summary
  ******************
  
  ---------------------------------------------------------------------------------
                                 Average  Maximum  Maximum  Time of Max    Reported
                                   Depth    Depth      HGL   Occurrence   Max Depth
  Node                 Type       Meters   Meters   Meters  days hr:min      Meters
  ---------------------------------------------------------------------------------
  WS02003060           JUNCTION     0.23     0.38     5.32     0  03:12        0.38
  WS02003066           JUNCTION     0.19     0.30     5.85     0  03:11        0.30
  WS02003067           JUNCTION     0.48     0.70     6.02     0  03:11        0.70
  WS02003069           JUNCTION     0.25     0.43     5.01     0  03:12        0.43
  WS02003072           JUNCTION     0.31     0.50     4.87     0  03:13        0.50
  WS02003073           JUNCTION     0.17     0.30     4.36     0  03:13        0.30
  WS02004401           JUNCTION     0.59     0.87     6.87     0  03:08        0.87
  WS02004402           JUNCTION     0.62     0.90     6.86     0  03:09        0.90
  WS02004403           JUNCTION     0.64     0.92     6.85     0  03:09        0.92
  WS02004404           JUNCTION     0.72     1.02     6.87     0  03:08        1.00
  WS02004405           JUNCTION     0.70     0.96     6.81     0  03:08        0.96
  WS02004406           JUNCTION     0.71     0.96     6.79     0  03:09        0.96
  WS02004407           JUNCTION     0.17     0.30     6.61     0  03:09        0.30
  WS02004409           JUNCTION     0.38     0.67     6.44     0  03:10        0.67
  WS02004410           JUNCTION     0.41     0.68     6.40     0  03:10        0.68
  WS02004411           JUNCTION     0.43     0.69     6.37     0  03:10        0.69
  WS02004412           JUNCTION     0.44     0.70     6.34     0  03:10        0.70
  WS02004413           JUNCTION     0.60     0.86     6.33     0  03:11        0.86
  WS02006109           JUNCTION     0.67     1.30     7.92     0  02:43        1.04
  WS02006110           JUNCTION     0.67     1.39     7.98     0  02:43        1.01
  WS02006111           JUNCTION     0.18     0.29     6.99     0  02:57        0.29
  WS02006112           JUNCTION     0.76     1.11     7.00     0  02:45        1.08
  WS02006113           JUNCTION     0.28     0.46     7.35     0  02:58        0.45
  WS02006115           JUNCTION     0.49     0.77     6.91     0  03:08        0.77
  WS02006116           JUNCTION     0.57     0.85     6.89     0  03:09        0.85
  WS02006228           JUNCTION     0.67     1.30     7.96     0  02:50        1.13
  WS02006229           JUNCTION     0.65     1.38     8.07     0  02:50        1.16
  WS02006230           JUNCTION     0.66     1.66     8.40     0  02:50        1.30
  WS02006231           JUNCTION     0.46     1.93     9.05     0  01:57        1.06
  WS02006232           JUNCTION     0.60     2.18     9.22     0  02:39        2.18
  WS02006234           JUNCTION     0.53     1.96     9.12     0  02:14        1.96
  WS02006235           JUNCTION     0.58     2.00     9.16     0  01:57        2.00
  WS02006238           JUNCTION     0.60     2.15     9.29     0  02:15        2.15
  WS02006239           JUNCTION     0.57     2.03     9.24     0  01:57        2.03
  WS02006240           JUNCTION     0.54     2.10     9.39     0  02:00        2.10
  WS02006242           JUNCTION     0.61     1.55     8.82     0  01:57        1.55
  WS02006243           JUNCTION     0.53     1.48     8.90     0  02:00        1.48
  WS02006245           JUNCTION     0.53     1.56     9.04     0  02:00        1.56
  WS02006247           JUNCTION     0.55     1.47     8.97     0  02:00        1.47
  WS02006248           JUNCTION     0.52     1.10     8.69     0  01:53        1.10
  WS02006249           JUNCTION     0.54     1.09     8.69     0  01:49        1.09
  WS02006251           JUNCTION     0.55     1.92     9.59     0  01:49        1.92
  WS02006252           JUNCTION     0.35     1.50     9.74     0  00:00        1.50
  WS02006256           JUNCTION     1.15     2.35     9.28     0  00:00        2.35
  WSF200               JUNCTION     0.16     0.29     5.52     0  03:11        0.29
  YS02001580           JUNCTION     0.14     1.05     9.59     0  02:02        0.77
  YS02001583           JUNCTION     0.17     1.14     9.64     0  02:02        0.83
  YS02001586           JUNCTION     0.27     1.13     9.30     0  02:02        1.13
  YS02001590           JUNCTION     0.38     1.40     9.26     0  02:02        1.39
  YS02001593           JUNCTION     0.31     1.33     9.19     0  02:02        1.29
  YS02001596           JUNCTION     0.43     1.69     9.11     0  02:02        1.66
  YS02001600           JUNCTION     0.52     1.87     9.00     0  02:02        1.86
  YS02001601           JUNCTION     0.70     2.06     8.90     0  02:01        2.06
  YS02001602           JUNCTION     0.60     1.87     8.77     0  02:01        1.87
  YS02001605           JUNCTION     0.55     1.78     8.68     0  02:10        1.77
  YS02001607           JUNCTION     0.51     1.65     8.50     0  02:16        1.65
  YS02001610           JUNCTION     0.55     1.68     8.48     0  02:06        1.68
  YS02001613           JUNCTION     0.51     1.67     8.51     0  02:13        1.67
  YS02001616           JUNCTION     0.45     1.61     8.52     0  02:13        1.61
  YS02001619           JUNCTION     0.43     1.61     8.54     0  02:11        1.61
  YS02001622           JUNCTION     0.42     1.58     8.49     0  02:13        1.58
  YS02001625           JUNCTION     0.66     1.78     8.38     0  02:06        1.78
  YS02001629           JUNCTION     0.54     1.85     8.40     0  02:07        1.85
  YS02001633           JUNCTION     0.61     2.03     8.48     0  02:08        2.01
  YS02001641           JUNCTION     0.57     1.95     8.39     0  02:09        1.95
  YS02001644           JUNCTION     0.56     1.92     8.35     0  02:08        1.92
  YS02001647           JUNCTION     0.34     1.81     8.42     0  02:09        1.73
  YS02001649           JUNCTION     0.38     2.03     8.42     0  02:09        1.94
  YS02001652           JUNCTION     0.27     1.97     8.56     0  02:09        1.78
  YS02001655           JUNCTION     0.19     2.11     8.96     0  02:09        1.57
  YS02001658           JUNCTION     0.14     2.11     9.26     0  02:09        1.31
  YS02001661           JUNCTION     0.17     1.22     8.62     0  02:10        1.11
  YS02001664           JUNCTION     0.07     0.52     8.45     0  02:13        0.51
  YS02001745           JUNCTION     0.08     0.75     8.27     0  02:13        0.75
  YS02001748           JUNCTION     0.12     2.14     9.22     0  02:09        1.19
  YS02001751           JUNCTION     0.15     2.03     8.91     0  02:09        1.38
  YS02001754           JUNCTION     0.21     1.97     8.58     0  02:09        1.64
  YS02001757           JUNCTION     0.37     1.98     8.24     0  02:13        1.98
  YS02001759           JUNCTION     0.32     2.01     8.37     0  02:13        2.01
  YS02001762           JUNCTION     0.31     1.98     8.38     0  02:13        1.98
  YS02001765           JUNCTION     0.29     1.94     8.39     0  02:13        1.94
  YS02001767           JUNCTION     0.29     1.92     8.41     0  02:13        1.92
  YS02001770           JUNCTION     0.30     1.95     8.44     0  02:13        1.95
  YS02001774           JUNCTION     0.36     2.02     8.44     0  02:07        1.99
  YS02001779           JUNCTION     0.20     1.68     8.37     0  02:07        1.68
  YS02001783           JUNCTION     0.31     1.28     7.42     0  02:06        1.23
  YS02001784           JUNCTION     0.32     1.15     7.22     0  02:06        1.13
  YS02001786           JUNCTION     0.27     0.90     6.93     0  02:06        0.87
  YS02001788           JUNCTION     0.19     0.62     6.60     0  02:13        0.62
  YS02001790           JUNCTION     0.23     0.73     6.37     0  02:11        0.72
  YS02001791           JUNCTION     0.14     0.44     5.91     0  02:11        0.44
  YS02001793           JUNCTION     0.07     0.25     5.08     0  02:16        0.23
  YS02001882           JUNCTION     0.39     1.67     8.39     0  02:11        1.66
  YS02001884           JUNCTION     0.47     1.76     8.38     0  02:11        1.76
  YS02001887           JUNCTION     0.55     1.84     8.38     0  02:13        1.84
  YS02001890           JUNCTION     0.58     1.81     8.32     0  02:06        1.81
  YS02001895           JUNCTION     0.36     1.57     8.31     0  02:15        1.57
  YS02001898           JUNCTION     0.37     1.57     8.30     0  02:06        1.56
  YS02001901           JUNCTION     0.47     1.69     8.30     0  02:16        1.69
  YS02001904           JUNCTION     0.45     1.65     8.28     0  02:16        1.65
  YS02001907           JUNCTION     0.75     1.96     8.25     0  02:06        1.96
  YS02001910           JUNCTION     0.57     2.01     8.52     0  02:07        1.92
  YS02001915           JUNCTION     0.40     1.98     8.69     0  02:07        1.84
  YS02001918           JUNCTION     0.23     1.81     8.88     0  02:07        1.51
  YS02001920           JUNCTION     0.31     2.14     9.15     0  02:07        1.57
  YS02001923           JUNCTION     0.18     2.03     9.29     0  02:07        1.32
  YS02001926           JUNCTION     0.21     1.90     9.35     0  02:07        1.16
  YS02001929           JUNCTION     0.12     1.78     9.47     0  02:07        0.92
  YS02006553           JUNCTION     0.76     1.99     8.27     0  02:13        1.99
  YS02006556           JUNCTION     0.73     1.98     8.29     0  02:13        1.98
  YS02006558           JUNCTION     0.77     2.03     8.30     0  02:13        2.03
  YS02006561           JUNCTION     0.20     0.95     7.61     0  02:06        0.90
  YS02163301           JUNCTION     0.56     1.92     8.44     0  02:08        1.92
  YS02163601           JUNCTION     0.64     2.05     8.44     0  02:08        2.04
  YS02164001           JUNCTION     0.57     1.96     8.42     0  02:09        1.95
  CC-1                 OUTFALL      0.00     0.00     0.00     0  00:00        0.00
  CC-2                 OUTFALL      0.00     0.00     0.00     0  00:00        0.00
  JK-1                 OUTFALL      0.00     0.00     0.00     0  00:00        0.00
  JK-2                 OUTFALL      0.00     0.00     0.00     0  00:00        0.00
  WSC                  OUTFALL      0.17     0.30     0.97     0  03:13        0.30
  CC-storage           STORAGE      0.37     1.08     6.58     0  02:43        1.08
  JK-storage           STORAGE      0.19     2.99     3.79     0  00:00        0.68
  
  
  *******************
  Node Inflow Summary
  *******************
  
  -------------------------------------------------------------------------------------------------
                                  Maximum  Maximum                  Lateral       Total        Flow
                                  Lateral    Total  Time of Max      Inflow      Inflow     Balance
                                   Inflow   Inflow   Occurrence      Volume      Volume       Error
  Node                 Type           LPS      LPS  days hr:min    10^6 ltr    10^6 ltr     Percent
  -------------------------------------------------------------------------------------------------
  WS02003060           JUNCTION     16.53   553.26     0  03:11       0.471         5.1       0.040
  WS02003066           JUNCTION      0.00   536.61     0  03:11           0        4.63       0.033
  WS02003067           JUNCTION      0.00   536.59     0  03:11           0        4.63       0.089
  WS02003069           JUNCTION      0.32   553.40     0  03:12     0.00912         5.1       0.077
  WS02003072           JUNCTION      0.00   553.14     0  03:12           0         5.1       0.141
  WS02003073           JUNCTION      1.82   554.77     0  03:13      0.0519        5.14       0.108
  WS02004401           JUNCTION      0.00   541.32     0  03:01           0        4.73       0.216
  WS02004402           JUNCTION      0.00   543.58     0  03:01           0        4.72       0.219
  WS02004403           JUNCTION      0.00   540.88     0  03:09           0        4.71       0.214
  WS02004404           JUNCTION      0.16   550.55     0  02:59     0.00462         4.7       0.142
  WS02004405           JUNCTION      0.04   599.98     0  03:09     0.00109         4.7       0.205
  WS02004406           JUNCTION      0.00   541.74     0  03:09           0        4.69       0.445
  WS02004407           JUNCTION      0.00   538.78     0  03:09           0        4.67       0.021
  WS02004409           JUNCTION      0.00   538.14     0  03:09           0        4.66       0.055
  WS02004410           JUNCTION      0.00   537.73     0  03:10           0        4.66       0.095
  WS02004411           JUNCTION      0.00   537.35     0  03:10           0        4.66       0.120
  WS02004412           JUNCTION      0.00   537.05     0  03:10           0        4.65       0.159
  WS02004413           JUNCTION      0.00   536.96     0  03:11           0        4.64       0.295
  WS02006109           JUNCTION      1.23   560.68     0  02:50      0.0351        4.77       0.152
  WS02006110           JUNCTION      0.00   561.89     0  01:56           0        4.76       0.116
  WS02006111           JUNCTION      0.00   562.84     0  02:58           0        4.76       0.017
  WS02006112           JUNCTION      0.00   545.19     0  02:57           0        4.76       0.435
  WS02006113           JUNCTION      0.00   570.54     0  02:43           0        4.76       0.037
  WS02006115           JUNCTION      0.00   553.31     0  01:55           0        4.74       0.147
  WS02006116           JUNCTION      0.00   544.93     0  01:55           0        4.73       0.034
  WS02006228           JUNCTION      0.00   558.96     0  02:50           0        4.74       0.036
  WS02006229           JUNCTION      0.00   558.58     0  02:50           0        4.75       0.145
  WS02006230           JUNCTION     10.28   603.62     0  03:12       0.293        4.75       0.009
  WS02006231           JUNCTION      0.00   583.07     0  03:16           0        4.45      -0.073
  WS02006232           JUNCTION      0.00   582.16     0  03:16           0        4.47       0.387
  WS02006234           JUNCTION      0.00   577.07     0  03:16           0        4.44      -0.522
  WS02006235           JUNCTION      0.00   602.41     0  01:47           0        4.61       0.515
  WS02006238           JUNCTION      0.00   422.55     0  02:58           0        3.44      -0.071
  WS02006239           JUNCTION      0.00   421.84     0  03:13           0        3.35      -0.014
  WS02006240           JUNCTION      0.00   419.75     0  03:17           0        3.28      -0.036
  WS02006242           JUNCTION      0.00   420.32     0  03:13           0        3.25      -0.003
  WS02006243           JUNCTION      0.00   420.89     0  03:30           0        3.23      -0.127
  WS02006245           JUNCTION      0.00   421.80     0  03:30           0        3.23       0.335
  WS02006247           JUNCTION      0.00   421.41     0  03:30           0        3.23       0.007
  WS02006248           JUNCTION      0.00   420.42     0  03:30           0        3.25       0.138
  WS02006249           JUNCTION      0.00   467.88     0  01:44           0        3.49       0.318
  WS02006251           JUNCTION      0.08   408.07     0  01:49     0.00219        3.49      -0.038
  WS02006252           JUNCTION      0.00   400.00     0  00:00           0        3.49      -0.021
  WS02006256           JUNCTION      0.00   313.52     0  02:34           0        1.81      -3.506
  WSF200               JUNCTION      0.00   536.65     0  03:11           0        4.63       0.008
  YS02001580           JUNCTION      0.00    76.14     0  02:02           0     0.00402      -1.973
  YS02001583           JUNCTION      0.00   134.14     0  02:01           0      0.0153      -4.315
  YS02001586           JUNCTION    766.56   766.65     0  02:15        1.75        1.76       0.062
  YS02001590           JUNCTION      0.00   317.88     0  02:12           0        1.37      -0.031
  YS02001593           JUNCTION      0.00   318.01     0  02:33           0        1.37       0.018
  YS02001596           JUNCTION      0.00   318.06     0  02:11           0        1.37       0.005
  YS02001600           JUNCTION      0.00   318.02     0  02:33           0        1.37       0.025
  YS02001601           JUNCTION   1359.68  1677.37     0  02:14        2.41        3.78       0.027
  YS02001602           JUNCTION      0.00   509.38     0  02:40           0        2.38       0.023
  YS02001605           JUNCTION      0.00   509.31     0  02:40           0        2.28       0.025
  YS02001607           JUNCTION      0.00   509.36     0  02:41           0        2.28       0.091
  YS02001610           JUNCTION      0.00   753.04     0  02:15           0        2.52       0.101
  YS02001613           JUNCTION      0.00   510.12     0  02:41           0         2.1       0.084
  YS02001616           JUNCTION      0.00   510.04     0  02:41           0         2.1       0.028
  YS02001619           JUNCTION   1363.18  1363.18     0  02:15         2.8        4.66       0.003
  YS02001622           JUNCTION      0.00   964.75     0  02:32           0        4.42       0.003
  YS02001625           JUNCTION      0.00  1358.01     0  02:15           0         4.6       0.195
  YS02001629           JUNCTION      0.00   964.95     0  02:32           0        3.83       0.026
  YS02001633           JUNCTION   1023.22  1379.22     0  02:06        1.76        5.38       0.067
  YS02001641           JUNCTION      0.00  1378.23     0  02:06           0        5.17       0.058
  YS02001644           JUNCTION    913.74  1785.53     0  02:06        1.53         6.7       0.050
  YS02001647           JUNCTION      0.00  1786.18     0  02:06           0        6.39       0.009
  YS02001649           JUNCTION      0.00  2069.22     0  02:06           0        7.79       0.007
  YS02001652           JUNCTION      0.00   918.91     0  02:13           0         1.4      -0.070
  YS02001655           JUNCTION      0.15   918.76     0  02:13     0.00439         1.4       0.029
  YS02001658           JUNCTION      0.00   918.19     0  02:13           0        1.39      -0.033
  YS02001661           JUNCTION      0.00   917.91     0  02:13           0        1.39       0.020
  YS02001664           JUNCTION    892.38   892.38     0  02:13        1.39        1.39      -0.006
  YS02001745           JUNCTION    566.92   566.92     0  02:13       0.844       0.844       0.103
  YS02001748           JUNCTION      0.04   578.22     0  02:13     0.00128       0.845      -0.146
  YS02001751           JUNCTION      0.01   577.38     0  02:13    0.000313       0.848       0.041
  YS02001754           JUNCTION      0.26   577.76     0  02:13     0.00741       0.858      -0.105
  YS02001757           JUNCTION      0.00  3512.05     0  02:13           0        11.5       0.058
  YS02001759           JUNCTION    788.49  1434.95     0  02:13        1.17        2.82      -0.005
  YS02001762           JUNCTION      0.00   825.27     0  02:18           0        1.66       0.010
  YS02001765           JUNCTION      0.00   824.36     0  02:18           0        1.66       0.007
  YS02001767           JUNCTION      0.54   823.60     0  02:18      0.0152        1.66       0.011
  YS02001770           JUNCTION   1107.12  1107.12     0  02:14        1.78        1.82      -0.002
  YS02001774           JUNCTION      0.00   480.89     0  02:13           0       0.194       0.663
  YS02001779           JUNCTION      0.01   480.29     0  02:13    0.000142       0.152      -0.353
  YS02001783           JUNCTION      0.00  1166.00     0  02:12           0        4.18       0.007
  YS02001784           JUNCTION      1.06  1167.07     0  02:11      0.0302        4.21       0.013
  YS02001786           JUNCTION      0.06  1167.11     0  02:11      0.0016        4.21       0.018
  YS02001788           JUNCTION      0.07  1167.11     0  02:11     0.00202        4.21       0.007
  YS02001790           JUNCTION      0.15  1181.47     0  02:13     0.00442        4.21       0.012
  YS02001791           JUNCTION      0.00  1295.58     0  02:11           0        4.21      -0.014
  YS02001793           JUNCTION      0.00  1248.39     0  02:11           0        4.21      -0.013
  YS02001882           JUNCTION      0.00    35.67     0  02:04           0      0.0126       5.776
  YS02001884           JUNCTION      0.00    53.35     0  02:03           0      0.0482       5.600
  YS02001887           JUNCTION    851.26   852.52     0  02:13        1.22        1.25       0.355
  YS02001890           JUNCTION      0.00   852.65     0  02:13           0        1.21       0.435
  YS02001895           JUNCTION      0.00   517.39     0  02:15           0        1.11       0.148
  YS02001898           JUNCTION      0.00   517.48     0  02:14           0         1.1       0.031
  YS02001901           JUNCTION      0.00   517.49     0  02:15           0        1.11       0.306
  YS02001904           JUNCTION      0.00   517.58     0  02:15           0        1.11       0.264
  YS02001907           JUNCTION      0.00  1989.27     0  02:13           0        3.77       0.482
  YS02001910           JUNCTION      0.00  1472.60     0  02:13           0        2.66       0.272
  YS02001915           JUNCTION    987.18  1472.40     0  02:13        1.69         2.7       0.058
  YS02001918           JUNCTION      0.00   493.50     0  02:13           0        1.02       0.007
  YS02001920           JUNCTION      2.87   493.42     0  02:13      0.0818        1.01       0.081
  YS02001923           JUNCTION      0.04   489.59     0  02:13     0.00107       0.916      -0.014
  YS02001926           JUNCTION      0.05   488.79     0  02:13     0.00149       0.899      -0.003
  YS02001929           JUNCTION    479.98   479.98     0  02:14        0.89       0.891      -0.083
  YS02006553           JUNCTION      0.00   798.87     0  02:30           0        2.44       0.490
  YS02006556           JUNCTION      0.00   798.64     0  02:30           0        2.45       0.339
  YS02006558           JUNCTION   1135.11  1167.05     0  02:12        1.78        4.21       0.088
  YS02006561           JUNCTION      0.00  1166.12     0  02:11           0        4.18      -0.007
  YS02163301           JUNCTION      0.00   966.90     0  02:32           0        3.82       0.046
  YS02163601           JUNCTION      0.11  1379.48     0  02:06     0.00313        5.17       0.100
  YS02164001           JUNCTION      0.00  1379.11     0  02:06           0        5.17       0.050
  CC-1                 OUTFALL       0.00   683.00     0  00:00           0        4.96       0.000
  CC-2                 OUTFALL       0.00   683.00     0  00:00           0        4.96       0.000
  JK-1                 OUTFALL       0.00  1000.00     0  00:00           0        1.29       0.000
  JK-2                 OUTFALL       0.00  1000.00     0  00:00           0        1.29       0.000
  WSC                  OUTFALL       0.00   554.50     0  03:13           0        5.14       0.000
  CC-storage           STORAGE       0.00  3511.97     0  02:13           0        13.7      -0.344
  JK-storage           STORAGE       0.00  1378.73     0  02:16           0        4.37      -0.513
  
  
  **********************
  Node Surcharge Summary
  **********************
  
  Surcharging occurs when water rises above the top of the highest conduit.
  ---------------------------------------------------------------------
                                               Max. Height   Min. Depth
                                   Hours       Above Crown    Below Rim
  Node                 Type      Surcharged         Meters       Meters
  ---------------------------------------------------------------------
  WS02004404           JUNCTION        0.01          0.017        2.763
  WS02006109           JUNCTION        1.89          0.484        1.336
  WS02006110           JUNCTION        0.51          0.480        1.370
  WS02006112           JUNCTION        1.40          0.113        1.567
  WS02006228           JUNCTION        1.87          0.475        1.725
  WS02006229           JUNCTION        1.91          0.578        1.872
  WS02006230           JUNCTION        0.58          0.576        0.994
  WS02006231           JUNCTION        1.12          1.221        0.309
  WS02006232           JUNCTION        2.04          1.480        0.000
  WS02006234           JUNCTION        1.47          1.240        0.000
  WS02006235           JUNCTION        1.71          1.290        0.000
  WS02006238           JUNCTION        1.90          1.430        0.000
  WS02006239           JUNCTION        1.88          1.290        0.000
  WS02006240           JUNCTION        1.93          1.390        0.000
  WS02006242           JUNCTION        2.10          0.820        0.000
  WS02006243           JUNCTION        1.96          0.770        0.000
  WS02006245           JUNCTION        1.95          0.850        0.000
  WS02006247           JUNCTION        1.99          0.760        0.000
  WS02006248           JUNCTION        1.93          0.380        0.000
  WS02006249           JUNCTION        1.97          0.390        0.000
  WS02006251           JUNCTION        1.44          0.886        0.294
  WS02006252           JUNCTION        2.42          1.100        0.000
  WS02006256           JUNCTION        5.91          2.050        0.000
  YS02001580           JUNCTION        0.64          0.450        0.000
  YS02001583           JUNCTION        0.64          0.500        0.000
  YS02001586           JUNCTION        0.74          0.510        0.000
  YS02001590           JUNCTION        0.82          0.750        0.000
  YS02001593           JUNCTION        0.82          0.712        0.128
  YS02001596           JUNCTION        0.95          0.961        0.109
  YS02001600           JUNCTION        1.13          1.190        0.000
  YS02001601           JUNCTION        1.48          1.440        0.000
  YS02001602           JUNCTION        1.37          1.270        0.000
  YS02001605           JUNCTION        1.31          1.175        0.005
  YS02001607           JUNCTION        0.75          0.653        0.027
  YS02001610           JUNCTION        0.78          0.680        0.000
  YS02001613           JUNCTION        0.74          0.670        0.030
  YS02001616           JUNCTION        0.69          0.610        0.000
  YS02001619           JUNCTION        0.68          0.610        0.000
  YS02001622           JUNCTION        0.67          0.582        0.038
  YS02001625           JUNCTION        0.88          0.780        0.000
  YS02001629           JUNCTION        0.57          0.470        0.000
  YS02001633           JUNCTION        0.89          1.007        0.053
  YS02001641           JUNCTION        0.76          0.953        0.147
  YS02001644           JUNCTION        0.69          0.920        0.000
  YS02001647           JUNCTION        0.42          0.806        0.094
  YS02001649           JUNCTION        0.47          1.028        0.022
  YS02001652           JUNCTION        0.33          0.936        0.194
  YS02001655           JUNCTION        0.26          1.108        0.092
  YS02001658           JUNCTION        0.17          1.114        0.186
  YS02001661           JUNCTION        0.02          0.148        1.242
  YS02001748           JUNCTION        0.10          1.062        0.128
  YS02001751           JUNCTION        0.19          1.034        0.166
  YS02001754           JUNCTION        0.25          0.920        0.230
  YS02001757           JUNCTION        0.46          0.981        0.229
  YS02001759           JUNCTION        0.38          1.007        0.203
  YS02001762           JUNCTION        0.37          0.981        0.169
  YS02001765           JUNCTION        0.35          0.942        0.158
  YS02001767           JUNCTION        0.33          0.920        0.110
  YS02001770           JUNCTION        0.32          0.920        0.000
  YS02001774           JUNCTION        0.37          1.016        0.034
  YS02001779           JUNCTION        0.27          0.680        0.000
  YS02001783           JUNCTION        0.56          0.475        1.125
  YS02001784           JUNCTION        0.54          0.352        1.138
  YS02001786           JUNCTION        0.42          0.098        1.332
  YS02001882           JUNCTION        0.50          0.671        0.159
  YS02001884           JUNCTION        0.51          0.700        0.170
  YS02001887           JUNCTION        0.55          0.792        0.158
  YS02001890           JUNCTION        0.57          0.760        0.000
  YS02001895           JUNCTION        0.49          0.568        0.182
  YS02001898           JUNCTION        0.49          0.537        0.203
  YS02001901           JUNCTION        0.54          0.693        0.177
  YS02001904           JUNCTION        0.53          0.651        0.199
  YS02001907           JUNCTION        0.81          0.950        0.000
  YS02001910           JUNCTION        0.59          1.015        0.085
  YS02001915           JUNCTION        0.50          0.976        0.024
  YS02001918           JUNCTION        0.41          0.810        0.000
  YS02001920           JUNCTION        0.43          1.140        0.000
  YS02001923           JUNCTION        0.12          0.820        0.000
  YS02001926           JUNCTION        0.15          0.900        0.000
  YS02001929           JUNCTION        0.01          0.780        0.000
  YS02006553           JUNCTION        0.83          0.989        0.201
  YS02006556           JUNCTION        0.70          0.941        0.409
  YS02006558           JUNCTION        0.68          0.933        0.467
  YS02006561           JUNCTION        0.38          0.147        1.003
  YS02163301           JUNCTION        0.87          0.923        0.107
  YS02163601           JUNCTION        0.92          1.045        0.035
  YS02164001           JUNCTION        0.78          0.960        0.140
  
  
  *********************
  Node Flooding Summary
  *********************
  
  Flooding refers to all water that overflows a node, whether it ponds or not.
  --------------------------------------------------------------------------
                                                             Total   Maximum
                                 Maximum   Time of Max       Flood    Ponded
                        Hours       Rate    Occurrence      Volume     Depth
  Node                 Flooded       LPS   days hr:min    10^6 ltr    Meters
  --------------------------------------------------------------------------
  WS02006232              0.01     24.61      0  02:39       0.000     0.000
  WS02006234              0.01    148.45      0  02:43       0.001     0.000
  WS02006235              0.01     55.86      0  02:39       0.000     0.000
  WS02006238              0.01     38.32      0  02:39       0.000     0.000
  WS02006239              0.01      5.62      0  02:18       0.000     0.000
  WS02006240              0.01      9.29      0  02:00       0.000     0.000
  WS02006242              0.02     30.08      0  01:57       0.001     0.000
  WS02006243              0.01      7.01      0  02:00       0.000     0.000
  WS02006245              0.01      7.58      0  02:00       0.000     0.000
  WS02006247              0.01      4.07      0  02:00       0.000     0.000
  WS02006248              0.18     33.52      0  02:27       0.009     0.000
  WS02006249              1.30    108.86      0  01:49       0.234     0.000
  WS02006252              0.01    245.63      0  00:00       0.000     0.000
  WS02006256              1.67    293.19      0  00:00       0.621     0.000
  YS02001580              0.01     50.41      0  02:02       0.000     0.000
  YS02001583              0.01     82.45      0  02:02       0.000     0.000
  YS02001586              0.50    449.63      0  02:15       0.380     0.000
  YS02001590              0.01      5.77      0  02:02       0.000     0.000
  YS02001600              0.01      1.21      0  02:02       0.000     0.000
  YS02001601              0.66   1279.35      0  02:14       1.398     0.000
  YS02001602              0.46     61.96      0  02:28       0.096     0.000
  YS02001610              0.42    752.77      0  02:15       0.657     0.000
  YS02001616              0.01      0.96      0  02:13       0.000     0.000
  YS02001619              0.01      2.08      0  02:13       0.000     0.000
  YS02001625              0.35   1357.93      0  02:15       0.965     0.000
  YS02001629              0.12    146.42      0  02:11       0.038     0.000
  YS02001644              0.16    877.11      0  02:13       0.295     0.000
  YS02001770              0.01      0.35      0  02:13       0.000     0.000
  YS02001779              0.14    480.28      0  02:13       0.136     0.000
  YS02001890              0.18    337.69      0  02:13       0.101     0.000
  YS02001907              0.36   1961.91      0  02:13       1.316     0.000
  YS02001918              0.01    104.83      0  02:07       0.001     0.000
  YS02001920              0.01     20.93      0  02:07       0.000     0.000
  YS02001923              0.01     46.31      0  02:07       0.000     0.000
  YS02001926              0.01    212.35      0  02:07       0.000     0.000
  YS02001929              0.01    266.99      0  02:07       0.001     0.000
  
  
  **********************
  Storage Volume Summary
  **********************
  
  ------------------------------------------------------------------------------------------------
                         Average    Avg   Evap  Exfil     Maximum    Max    Time of Max    Maximum
                          Volume   Pcnt   Pcnt   Pcnt      Volume   Pcnt     Occurrence    Outflow
  Storage Unit           1000 m³   Full   Loss   Loss     1000 m³   Full    days hr:min        LPS
  ------------------------------------------------------------------------------------------------
  CC-storage               1.036   16.2    0.0    0.0       3.016   47.0       0  02:43    1783.53
  JK-storage               0.010    3.3    0.0    0.0       0.150   51.6       0  00:00    2300.00
  
  
  ***********************
  Outfall Loading Summary
  ***********************
  
  -----------------------------------------------------------
                         Flow       Avg       Max       Total
                         Freq      Flow      Flow      Volume
  Outfall Node           Pcnt       LPS       LPS    10^6 ltr
  -----------------------------------------------------------
  CC-1                  44.88    683.00    683.00       4.964
  CC-2                  44.88    683.00    683.00       4.964
  JK-1                   8.45   1000.00   1000.00       1.294
  JK-2                   8.45   1000.00   1000.00       1.294
  WSC                   99.94    249.46    554.50       5.138
  -----------------------------------------------------------
  System                41.32   3615.46   3904.79      17.654
  
  
  ********************
  Link Flow Summary
  ********************
  
  -----------------------------------------------------------------------------
                                 Maximum  Time of Max   Maximum    Max/    Max/
                                  |Flow|   Occurrence   |Veloc|    Full    Full
  Link                 Type          LPS  days hr:min     m/sec    Flow   Depth
  -----------------------------------------------------------------------------
  1                    CONDUIT    554.50     0  03:13      2.83    0.19    0.30
  WS02003060WS02003069 CONDUIT    553.08     0  03:12      1.64    0.22    0.34
  WS02003066WSF200     CONDUIT    536.65     0  03:11      2.85    0.09    0.22
  WS02003067WS02003066 CONDUIT    536.61     0  03:11      1.21    0.17    0.42
  WS02003069WS02003072 CONDUIT    553.14     0  03:12      1.37    0.27    0.39
  WS02003072WS02003073 CONDUIT    552.95     0  03:13      1.43    1.19    0.37
  WS02004401WS02004402 CONDUIT    543.58     0  03:01      1.22    0.65    0.89
  WS02004402WS02004403 CONDUIT    540.88     0  03:09      1.24    0.78    0.91
  WS02004403WS02004404 CONDUIT    550.39     0  02:59      1.24    0.40    0.96
  WS02004404WS02004405 CONDUIT    599.94     0  03:09      1.45    5.88    0.98
  WS02004405WS02004406 CONDUIT    541.74     0  03:09      1.46    1.07    0.96
  WS02004406WS02004407 CONDUIT    538.78     0  03:09      1.04    0.24    0.63
  WS02004407WS02004409 CONDUIT    538.14     0  03:09      1.59    0.19    0.48
  WS02004409WS02004410 CONDUIT    537.73     0  03:10      1.06    0.70    0.67
  WS02004410WS02004411 CONDUIT    537.35     0  03:10      1.13    0.73    0.69
  WS02004411WS02004412 CONDUIT    537.05     0  03:10      1.20    0.76    0.69
  WS02004412WS02004413 CONDUIT    536.96     0  03:11      1.22    0.36    0.78
  WS02004413WS02003067 CONDUIT    536.59     0  03:11      1.11    0.23    0.59
  WS02006109WS02006110 CONDUIT    561.89     0  01:56      1.12    1.08    1.00
  WS02006110WS02006113 CONDUIT    570.54     0  02:43      1.36    0.52    0.79
  WS02006111WS02006112 CONDUIT    545.19     0  02:57      1.95    0.26    0.67
  WS02006112WS02006115 CONDUIT    553.31     0  01:55      0.86    0.33    0.88
  WS02006113WS02006111 CONDUIT    562.84     0  02:58      2.47    0.67    0.46
  WS02006115WS02006116 CONDUIT    544.93     0  01:55      1.29    0.70    0.78
  WS02006116WS02004401 CONDUIT    541.32     0  03:01      1.21    0.75    0.86
  WS02006228WS02006109 CONDUIT    559.45     0  02:50      1.11    2.44    1.00
  WS02006229WS02006228 CONDUIT    558.96     0  02:50      1.12    1.85    1.00
  WS02006230WS02006229 CONDUIT    558.58     0  02:50      1.45   12.43    1.00
  WS02006231WS02006230 CONDUIT    593.34     0  03:12      1.62    9.00    1.00
  WS02006232WS02006231 CONDUIT    583.07     0  03:16      1.52    1.22    1.00
  WS02006234WS02006232 CONDUIT    582.16     0  03:16      1.51    1.18    1.00
  WS02006235WS02006234 CONDUIT    577.07     0  03:16      1.52    6.09    1.00
  WS02006238WS02006235 CONDUIT    424.14     0  02:58      1.45    0.95    1.00
  WS02006239WS02006238 CONDUIT    422.55     0  02:58      1.11    1.35    1.00
  WS02006240WS02006239 CONDUIT    421.84     0  03:13      1.24    1.33    1.00
  WS02006242WS02006240 CONDUIT    419.75     0  03:17      1.16    1.67    1.00
  WS02006243WS02006242 CONDUIT    420.32     0  03:13      1.44    0.90    1.00
  WS02006245WS02006243 CONDUIT    420.89     0  03:30      1.44    1.24    1.00
  WS02006247WS02006245 CONDUIT    421.80     0  03:30      1.43    3.34    1.00
  WS02006248WS02006247 CONDUIT    421.41     0  03:30      1.44    0.92    1.00
  WS02006249WS02006248 CONDUIT    420.42     0  03:30      1.38    2.30    1.00
  WS02006251WS02006249 CONDUIT    467.88     0  01:44      1.99    1.35    1.00
  WS02006252WS02006251 CONDUIT    407.99     0  01:49      4.89    1.50    1.00
  WS02006256WS02006235 CONDUIT    288.91     0  00:00      4.23    3.06    1.00
  WSF200WS02003060     CONDUIT    536.74     0  03:11      2.06    0.12    0.28
  YS02001580YS02001583 CONDUIT     76.14     0  02:02      0.56    0.30    1.00
  YS02001583YS02001586 CONDUIT    134.14     0  02:01      0.56    0.20    1.00
  YS02001586YS02001590 CONDUIT    317.88     0  02:12      1.27    0.56    1.00
  YS02001590YS02001593 CONDUIT    318.01     0  02:33      1.12    2.00    1.00
  YS02001593YS02001596 CONDUIT    318.06     0  02:11      1.77    0.50    1.00
  YS02001596YS02001600 CONDUIT    318.02     0  02:33      1.26    0.62    1.00
  YS02001600YS02001601 CONDUIT    318.09     0  02:16      1.13    0.55    1.00
  YS02001601YS02001602 CONDUIT    509.38     0  02:40      1.80    1.84    1.00
  YS02001602YS02001605 CONDUIT    509.31     0  02:40      1.80   10.78    1.00
  YS02001605YS02001607 CONDUIT    509.36     0  02:41      1.80    2.79    1.00
  YS02001607YS02001610 CONDUIT    510.22     0  02:41      0.65    0.49    1.00
  YS02001610YS02001613 CONDUIT    510.12     0  02:41      0.65    0.59    1.00
  YS02001613YS02001616 CONDUIT    510.04     0  02:41      0.65    0.44    1.00
  YS02001616YS02001619 CONDUIT    510.12     0  02:41      0.67    0.89    1.00
  YS02001619YS02001622 CONDUIT    964.75     0  02:32      1.23    1.42    1.00
  YS02001622YS02001625 CONDUIT    964.90     0  02:32      1.23    0.51    1.00
  YS02001625YS02001629 CONDUIT    964.95     0  02:32      1.23    0.46    1.00
  YS02001629YS02163301 CONDUIT    966.90     0  02:32      1.23    1.19    1.00
  YS02001633YS02163601 CONDUIT   1379.37     0  02:06      1.76    1.45    1.00
  YS02001641YS02001644 CONDUIT   1377.56     0  02:06      1.75    4.45    1.00
  YS02001644YS02001647 CONDUIT   1786.18     0  02:06      2.27    1.05    1.00
  YS02001647YS02001649 CONDUIT   1789.73     0  02:06      2.33    0.94    1.00
  YS02001649YS02001757 CONDUIT   2066.76     0  02:06      2.64    1.25    1.00
  YS02001652YS02001649 CONDUIT    918.95     0  02:13      1.17    0.46    1.00
  YS02001655YS02001652 CONDUIT    918.91     0  02:13      1.27    0.45    1.00
  YS02001658YS02001655 CONDUIT    918.60     0  02:13      1.85    0.39    1.00
  YS02001661YS02001658 CONDUIT    918.19     0  02:13      2.31    0.36    1.00
  YS02001664YS02001661 CONDUIT    917.91     0  02:13      2.30    0.29    0.76
  YS02001745YS02001748 CONDUIT    578.17     0  02:13      2.17    0.22    0.88
  YS02001748YS02001751 CONDUIT    577.37     0  02:13      1.66    0.29    1.00
  YS02001751YS02001754 CONDUIT    577.50     0  02:13      1.38    0.28    1.00
  YS02001754YS02001757 CONDUIT    578.02     0  02:13      0.74    0.23    1.00
  YS02001757CaochengTiaoxuchi CONDUIT   3511.97     0  02:13      5.93    1.52    1.00
  YS02001759YS02001757 CONDUIT   1436.00     0  02:13      1.83    1.02    1.00
  YS02001762YS02001759 CONDUIT    826.06     0  02:18      1.05    0.95    1.00
  YS02001765YS02001762 CONDUIT    825.27     0  02:18      1.05    0.77    1.00
  YS02001767YS02001765 CONDUIT    824.36     0  02:18      1.05    1.04    1.00
  YS02001770YS02001767 CONDUIT    823.07     0  02:18      1.05    3.26    1.00
  YS02001774YS02001770 CONDUIT    480.89     0  02:13      0.61    0.31    1.00
  YS02001779YS02001774 CONDUIT    480.28     0  02:13      0.61    0.24    1.00
  YS02001783YS02001784 CONDUIT   1166.01     0  02:11      2.32    1.61    1.00
  YS02001784YS02001785 CONDUIT   1167.05     0  02:11      2.32    2.72    1.00
  YS02001786YS02001788 CONDUIT   1167.04     0  02:11      2.49    2.25    0.89
  YS02001788YS02001790 CONDUIT   1181.31     0  02:13      2.73    0.87    0.84
  YS02001790YS02001791 CONDUIT   1295.58     0  02:11      3.42    1.41    0.71
  YS02001791YS02001793 CONDUIT   1248.39     0  02:11      6.78    0.54    0.43
  YS02001793JiankangQianchi CONDUIT   1378.73     0  02:16     15.06    0.11    0.50
  YS02001882YS02001884 CONDUIT     35.67     0  02:04      0.13    0.04    1.00
  YS02001884YS02001887 CONDUIT     53.35     0  02:03      0.09    0.07    1.00
  YS02001887YS02001890 CONDUIT    852.65     0  02:13      1.09    1.46    1.00
  YS02001890YS02001895 CONDUIT    517.39     0  02:15      0.66    0.24    1.00
  YS02001895YS02001898 CONDUIT    517.48     0  02:14      0.66    0.90    1.00
  YS02001898YS02001901 CONDUIT    517.49     0  02:15      0.66    0.33    1.00
  YS02001901YS02001904 CONDUIT    517.58     0  02:15      0.66    0.80    1.00
  YS02001904YS02001907 CONDUIT    518.30     0  02:16      0.66    0.18    1.00
  YS02001907YS02006553 CONDUIT    798.87     0  02:30      0.89    0.94    1.00
  YS02001910YS02001907 CONDUIT   1472.35     0  02:13      1.87    0.83    1.00
  YS02001915YS02001910 CONDUIT   1472.60     0  02:13      1.87    0.73    1.00
  YS02001918YS02001915 CONDUIT    493.43     0  02:13      0.63    0.27    1.00
  YS02001920YS02001918 CONDUIT    493.50     0  02:13      0.64    0.48    1.00
  YS02001923YS02001920 CONDUIT    490.55     0  02:13      0.69    0.22    1.00
  YS02001926YS02001923 CONDUIT    489.55     0  02:13      0.95    0.70    1.00
  YS02001929YS02001926 CONDUIT    488.73     0  02:13      1.09    0.23    1.00
  YS02006553YS02006556 CONDUIT    798.64     0  02:30      1.02    0.68    1.00
  YS02006556YS02006558 CONDUIT    799.20     0  02:30      1.02    0.63    1.00
  YS02006558YS02006561 CONDUIT   1166.12     0  02:11      4.12    2.58    1.00
  YS02006561YS02001783 CONDUIT   1166.00     0  02:12      2.32    0.60    1.00
  YS02163301YS02001633 CONDUIT    966.97     0  02:32      1.23    0.91    1.00
  YS02163601YS02164001 CONDUIT   1379.11     0  02:06      1.76    1.22    1.00
  YS02164001YS02001641 CONDUIT   1378.23     0  02:06      1.75    1.88    1.00
  CC-R1                PUMP       683.00     0  00:00              1.00
  CC-R2                PUMP       683.00     0  00:00              1.00
  CC-S1                PUMP       200.00     0  00:00              1.00
  CC-S2                PUMP       200.00     0  00:00              1.00
  JK-R1                PUMP      1000.00     0  00:00              1.00
  JK-R2                PUMP      1000.00     0  00:00              1.00
  JK-S                 PUMP       300.00     0  00:00              1.00
  
  
  ***************************
  Flow Classification Summary
  ***************************
  
  -------------------------------------------------------------------------------------
                      Adjusted    ---------- Fraction of Time in Flow Class ---------- 
                       /Actual         Up    Down  Sub   Sup   Up    Down  Norm  Inlet 
  Conduit               Length    Dry  Dry   Dry   Crit  Crit  Crit  Crit  Ltd   Ctrl  
  -------------------------------------------------------------------------------------
  1                       1.00   0.00  0.00  0.00  0.00  1.00  0.00  0.00  0.45  0.00
  WS02003060WS02003069    1.00   0.00  0.00  0.00  0.97  0.03  0.00  0.00  0.72  0.00
  WS02003066WSF200        1.00   0.05  0.00  0.00  0.00  0.95  0.00  0.00  0.81  0.00
  WS02003067WS02003066    1.00   0.05  0.00  0.00  0.95  0.00  0.00  0.00  0.00  0.00
  WS02003069WS02003072    1.00   0.00  0.00  0.00  0.99  0.01  0.00  0.00  0.74  0.00
  WS02003072WS02003073    1.00   0.00  0.00  0.00  0.00  0.00  0.00  1.00  0.00  0.00
  WS02004401WS02004402    1.00   0.02  0.00  0.00  0.98  0.00  0.00  0.00  0.00  0.00
  WS02004402WS02004403    1.00   0.02  0.00  0.00  0.98  0.00  0.00  0.00  0.00  0.00
  WS02004403WS02004404    1.00   0.00  0.03  0.00  0.97  0.00  0.00  0.00  0.00  0.00
  WS02004404WS02004405    1.00   0.00  0.00  0.00  1.00  0.00  0.00  0.00  0.01  0.00
  WS02004405WS02004406    1.00   0.00  0.00  0.00  1.00  0.00  0.00  0.00  0.00  0.00
  WS02004406WS02004407    1.00   0.00  0.03  0.00  0.97  0.00  0.00  0.00  0.00  0.00
  WS02004407WS02004409    1.00   0.03  0.00  0.00  0.95  0.02  0.00  0.00  0.95  0.00
  WS02004409WS02004410    1.00   0.03  0.00  0.00  0.96  0.00  0.00  0.00  0.00  0.00
  WS02004410WS02004411    1.00   0.04  0.00  0.00  0.96  0.00  0.00  0.00  0.00  0.00
  WS02004411WS02004412    1.00   0.04  0.00  0.00  0.96  0.00  0.00  0.00  0.00  0.00
  WS02004412WS02004413    1.00   0.04  0.00  0.00  0.96  0.00  0.00  0.00  0.00  0.00
  WS02004413WS02003067    1.00   0.04  0.01  0.00  0.00  0.00  0.95  0.00  0.00  0.00
  WS02006109WS02006110    1.00   0.00  0.01  0.00  0.98  0.00  0.01  0.00  0.00  0.00
  WS02006110WS02006113    1.00   0.01  0.01  0.00  0.98  0.00  0.00  0.00  0.00  0.00
  WS02006111WS02006112    1.00   0.02  0.00  0.00  0.98  0.00  0.00  0.00  0.98  0.00
  WS02006112WS02006115    1.00   0.02  0.00  0.00  0.97  0.00  0.00  0.00  0.00  0.00
  WS02006113WS02006111    1.00   0.02  0.00  0.00  0.00  0.98  0.00  0.00  0.13  0.00
  WS02006115WS02006116    1.00   0.02  0.00  0.00  0.97  0.00  0.00  0.01  0.00  0.00
  WS02006116WS02004401    1.00   0.02  0.00  0.00  0.98  0.00  0.00  0.00  0.00  0.00
  WS02006228WS02006109    1.00   0.00  0.00  0.00  1.00  0.00  0.00  0.00  0.00  0.00
  WS02006229WS02006228    1.00   0.00  0.00  0.00  0.99  0.00  0.00  0.01  0.00  0.00
  WS02006230WS02006229    1.00   0.00  0.00  0.00  0.99  0.00  0.00  0.01  0.02  0.00
  WS02006231WS02006230    1.00   0.00  0.00  0.00  0.28  0.00  0.72  0.00  0.00  0.00
  WS02006232WS02006231    1.00   0.00  0.00  0.00  0.98  0.00  0.02  0.00  0.00  0.00
  WS02006234WS02006232    1.00   0.00  0.00  0.00  1.00  0.00  0.00  0.00  0.07  0.00
  WS02006235WS02006234    1.00   0.00  0.00  0.00  0.91  0.00  0.09  0.00  0.00  0.00
  WS02006238WS02006235    1.00   0.00  0.00  0.00  1.00  0.00  0.00  0.00  0.00  0.00
  WS02006239WS02006238    1.00   0.00  0.00  0.00  1.00  0.00  0.00  0.00  0.22  0.00
  WS02006240WS02006239    1.00   0.00  0.00  0.00  0.67  0.00  0.00  0.33  0.05  0.00
  WS02006242WS02006240    1.00   0.00  0.00  0.00  0.99  0.00  0.00  0.00  0.03  0.00
  WS02006243WS02006242    1.00   0.00  0.00  0.00  0.99  0.00  0.00  0.01  0.62  0.00
  WS02006245WS02006243    1.00   0.00  0.00  0.00  0.53  0.00  0.00  0.47  0.02  0.00
  WS02006247WS02006245    1.00   0.00  0.00  0.00  0.99  0.00  0.00  0.01  0.00  0.00
  WS02006248WS02006247    1.00   0.00  0.00  0.00  0.99  0.00  0.00  0.01  0.18  0.00
  WS02006249WS02006248    1.00   0.00  0.00  0.00  0.35  0.00  0.65  0.00  0.00  0.00
  WS02006251WS02006249    1.00   0.00  0.00  0.00  0.99  0.00  0.00  0.00  0.66  0.00
  WS02006252WS02006251    1.00   0.00  0.44  0.00  0.18  0.00  0.38  0.00  0.00  0.00
  WS02006256WS02006235    1.00   0.00  0.00  0.00  0.98  0.02  0.00  0.00  0.00  0.00
  WSF200WS02003060        1.00   0.00  0.05  0.00  0.40  0.55  0.00  0.00  0.66  0.00
  YS02001580YS02001583    1.00   0.25  0.55  0.00  0.20  0.00  0.00  0.00  0.65  0.00
  YS02001583YS02001586    1.00   0.40  0.34  0.00  0.25  0.00  0.00  0.00  0.65  0.00
  YS02001586YS02001590    1.00   0.13  0.00  0.00  0.45  0.04  0.00  0.38  0.38  0.00
  YS02001590YS02001593    1.00   0.13  0.01  0.00  0.12  0.00  0.75  0.00  0.00  0.00
  YS02001593YS02001596    1.00   0.14  0.00  0.00  0.14  0.01  0.00  0.71  0.02  0.00
  YS02001596YS02001600    1.00   0.14  0.00  0.00  0.21  0.01  0.00  0.64  0.05  0.00
  YS02001600YS02001601    1.00   0.13  0.01  0.00  0.86  0.00  0.00  0.00  0.59  0.00
  YS02001601YS02001602    1.00   0.13  0.01  0.00  0.86  0.00  0.00  0.00  0.00  0.00
  YS02001602YS02001605    1.00   0.14  0.00  0.00  0.86  0.00  0.00  0.00  0.00  0.00
  YS02001605YS02001607    1.00   0.14  0.00  0.00  0.86  0.00  0.00  0.00  0.00  0.00
  YS02001607YS02001610    1.00   0.13  0.01  0.00  0.86  0.00  0.00  0.00  0.01  0.00
  YS02001610YS02001613    1.00   0.13  0.00  0.00  0.87  0.00  0.00  0.00  0.00  0.00
  YS02001613YS02001616    1.00   0.13  0.00  0.00  0.87  0.00  0.00  0.00  0.00  0.00
  YS02001616YS02001619    1.00   0.13  0.00  0.00  0.87  0.00  0.00  0.00  0.00  0.00
  YS02001619YS02001622    1.00   0.13  0.00  0.00  0.87  0.00  0.00  0.00  0.27  0.00
  YS02001622YS02001625    1.00   0.13  0.00  0.00  0.87  0.00  0.00  0.00  0.04  0.00
  YS02001625YS02001629    1.00   0.13  0.05  0.00  0.17  0.00  0.66  0.00  0.00  0.00
  YS02001629YS02163301    1.00   0.15  0.01  0.00  0.84  0.00  0.00  0.00  0.00  0.00
  YS02001633YS02163601    1.00   0.00  0.01  0.00  0.99  0.00  0.00  0.00  0.15  0.00
  YS02001641YS02001644    1.00   0.00  0.01  0.00  0.99  0.00  0.00  0.00  0.00  0.00
  YS02001644YS02001647    1.00   0.00  0.17  0.00  0.83  0.00  0.00  0.00  0.00  0.00
  YS02001647YS02001649    1.00   0.00  0.17  0.00  0.48  0.35  0.00  0.00  0.55  0.00
  YS02001649YS02001757    1.00   0.00  0.00  0.00  0.62  0.38  0.00  0.00  0.51  0.00
  YS02001652YS02001649    1.00   0.00  0.00  0.00  0.97  0.03  0.00  0.00  0.74  0.00
  YS02001655YS02001652    1.00   0.00  0.00  0.00  0.18  0.02  0.00  0.80  0.09  0.00
  YS02001658YS02001655    1.00   0.00  0.14  0.00  0.61  0.25  0.00  0.00  0.73  0.00
  YS02001661YS02001658    1.00   0.14  0.00  0.00  0.44  0.42  0.00  0.00  0.73  0.00
  YS02001664YS02001661    1.00   0.13  0.00  0.00  0.72  0.15  0.00  0.00  0.85  0.00
  YS02001745YS02001748    1.00   0.00  0.00  0.00  0.04  0.01  0.00  0.95  0.02  0.00
  YS02001748YS02001751    1.00   0.00  0.00  0.00  0.76  0.24  0.00  0.00  0.80  0.00
  YS02001751YS02001754    1.00   0.00  0.00  0.00  0.12  0.01  0.00  0.87  0.05  0.00
  YS02001754YS02001757    1.00   0.00  0.00  0.00  1.00  0.00  0.00  0.00  0.85  0.00
  YS02001757CaochengTiaoxuchi    1.00   0.00  0.00  0.00  0.78  0.22  0.00  0.00  0.77  0.00
  YS02001759YS02001757    1.00   0.00  0.00  0.00  1.00  0.00  0.00  0.00  0.61  0.00
  YS02001762YS02001759    1.00   0.00  0.00  0.00  1.00  0.00  0.00  0.00  0.04  0.00
  YS02001765YS02001762    1.00   0.00  0.00  0.00  1.00  0.00  0.00  0.00  0.72  0.00
  YS02001767YS02001765    1.00   0.00  0.00  0.00  1.00  0.00  0.00  0.00  0.00  0.00
  YS02001770YS02001767    1.00   0.00  0.00  0.00  1.00  0.00  0.00  0.00  0.00  0.00
  YS02001774YS02001770    1.00   0.00  0.13  0.00  0.71  0.00  0.15  0.00  0.03  0.00
  YS02001779YS02001774    1.00   0.00  0.00  0.00  1.00  0.00  0.00  0.00  0.78  0.00
  YS02001783YS02001784    1.00   0.00  0.18  0.00  0.82  0.00  0.00  0.00  0.55  0.00
  YS02001784YS02001785    1.00   0.00  0.00  0.00  1.00  0.00  0.00  0.00  0.17  0.00
  YS02001786YS02001788    1.00   0.00  0.00  0.00  0.79  0.21  0.00  0.00  0.00  0.00
  YS02001788YS02001790    1.00   0.00  0.00  0.00  0.21  0.79  0.00  0.00  0.79  0.00
  YS02001790YS02001791    1.00   0.00  0.00  0.00  0.01  0.99  0.00  0.00  0.16  0.00
  YS02001791YS02001793    1.00   0.00  0.00  0.00  0.00  1.00  0.00  0.00  0.01  0.00
  YS02001793JiankangQianchi    1.00   0.00  0.00  0.00  0.64  0.36  0.00  0.00  0.94  0.00
  YS02001882YS02001884    1.00   0.15  0.01  0.00  0.84  0.00  0.00  0.00  0.00  0.00
  YS02001884YS02001887    1.00   0.06  0.05  0.00  0.89  0.00  0.00  0.00  0.00  0.00
  YS02001887YS02001890    1.00   0.00  0.00  0.00  0.97  0.00  0.03  0.00  0.00  0.00
  YS02001890YS02001895    1.00   0.00  0.16  0.00  0.84  0.00  0.00  0.00  0.00  0.00
  YS02001895YS02001898    1.00   0.16  0.00  0.00  0.82  0.00  0.02  0.00  0.00  0.00
  YS02001898YS02001901    1.00   0.17  0.00  0.00  0.83  0.00  0.00  0.00  0.01  0.00
  YS02001901YS02001904    1.00   0.17  0.00  0.00  0.83  0.00  0.00  0.00  0.00  0.00
  YS02001904YS02001907    1.00   0.00  0.16  0.00  0.84  0.00  0.00  0.00  0.00  0.00
  YS02001907YS02006553    1.00   0.00  0.02  0.00  0.98  0.00  0.00  0.00  0.00  0.00
  YS02001910YS02001907    1.00   0.00  0.00  0.00  0.97  0.00  0.00  0.03  0.12  0.00
  YS02001915YS02001910    1.00   0.00  0.00  0.00  0.97  0.03  0.00  0.00  0.16  0.00
  YS02001918YS02001915    1.00   0.00  0.01  0.00  0.98  0.02  0.00  0.00  0.74  0.00
  YS02001920YS02001918    1.00   0.00  0.01  0.00  0.99  0.00  0.00  0.00  0.00  0.00
  YS02001923YS02001920    1.00   0.00  0.00  0.00  1.00  0.00  0.00  0.00  0.92  0.00
  YS02001926YS02001923    1.00   0.00  0.07  0.00  0.06  0.00  0.86  0.00  0.00  0.00
  YS02001929YS02001926    1.00   0.00  0.13  0.00  0.87  0.00  0.00  0.00  0.82  0.00
  YS02006553YS02006556    1.00   0.01  0.00  0.00  0.99  0.00  0.00  0.00  0.03  0.00
  YS02006556YS02006558    1.00   0.00  0.00  0.00  1.00  0.00  0.00  0.00  0.00  0.00
  YS02006558YS02006561    1.00   0.18  0.00  0.00  0.06  0.76  0.00  0.00  0.19  0.00
  YS02006561YS02001783    1.00   0.18  0.00  0.00  0.10  0.73  0.00  0.00  0.68  0.00
  YS02163301YS02001633    1.00   0.00  0.15  0.00  0.85  0.00  0.00  0.00  0.00  0.00
  YS02163601YS02164001    1.00   0.00  0.08  0.00  0.92  0.00  0.00  0.00  0.00  0.00
  YS02164001YS02001641    1.00   0.01  0.08  0.00  0.92  0.00  0.00  0.00  0.06  0.00
  
  
  *************************
  Conduit Surcharge Summary
  *************************
  
  ----------------------------------------------------------------------------
                                                           Hours        Hours 
                         --------- Hours Full --------   Above Full   Capacity
  Conduit                Both Ends  Upstream  Dnstream   Normal Flow   Limited
  ----------------------------------------------------------------------------
  WS02003072WS02003073        0.01      0.01      0.01      1.63         0.01
  WS02004403WS02004404        0.01      0.01      0.01      0.01         0.01
  WS02004404WS02004405        0.01      0.01      0.01      2.93         0.01
  WS02004405WS02004406        0.01      0.01      0.01      1.14         0.01
  WS02006109WS02006110        0.49      0.49      2.02      0.79         0.01
  WS02006110WS02006113        0.01      0.01      1.97      0.01         0.01
  WS02006111WS02006112        0.01      0.01      2.12      0.01         0.01
  WS02006112WS02006115        0.01      0.01      1.40      0.01         0.01
  WS02006228WS02006109        1.89      2.02      1.89      2.41         1.89
  WS02006229WS02006228        1.87      1.91      1.87      2.28         1.85
  WS02006230WS02006229        2.14      2.22      2.14      3.42         2.14
  WS02006231WS02006230        0.57      0.57      1.33      3.03         0.01
  WS02006232WS02006231        1.11      1.11      2.04      1.19         0.01
  WS02006234WS02006232        1.66      1.67      2.04      1.14         1.02
  WS02006235WS02006234        1.41      1.46      1.70      2.85         0.10
  WS02006238WS02006235        1.77      1.77      2.06      0.01         0.06
  WS02006239WS02006238        1.90      2.04      1.90      2.23         1.57
  WS02006240WS02006239        1.87      1.95      1.87      2.23         1.46
  WS02006242WS02006240        1.93      1.93      2.16      2.34         0.02
  WS02006243WS02006242        1.98      1.98      2.10      0.01         0.27
  WS02006245WS02006243        1.95      1.97      1.96      1.83         1.13
  WS02006247WS02006245        1.95      2.01      1.95      2.42         1.83
  WS02006248WS02006247        1.95      1.95      1.99      0.01         0.30
  WS02006249WS02006248        1.93      1.93      1.97      2.41         0.01
  WS02006251WS02006249        1.96      1.98      1.97      2.37         1.77
  WS02006252WS02006251        2.42      2.42      2.42      2.42         0.01
  WS02006256WS02006235        2.73      2.93      5.72      1.71         0.02
  YS02001580YS02001583        0.64      0.64      0.66      0.01         0.01
  YS02001583YS02001586        0.64      0.64      0.74      0.01         0.01
  YS02001586YS02001590        0.75      0.75      0.82      0.01         0.01
  YS02001590YS02001593        0.83      0.83      0.84      0.88         0.01
  YS02001593YS02001596        0.84      0.84      0.95      0.01         0.01
  YS02001596YS02001600        1.00      1.00      1.13      0.01         0.01
  YS02001600YS02001601        1.20      1.20      1.48      0.01         0.01
  YS02001601YS02001602        1.37      1.37      1.52      1.16         0.01
  YS02001602YS02001605        1.31      1.31      1.37      2.35         0.01
  YS02001605YS02001607        1.27      1.31      1.27      1.44         1.27
  YS02001607YS02001610        0.75      0.75      0.78      0.01         0.01
  YS02001610YS02001613        0.74      0.74      0.78      0.01         0.01
  YS02001613YS02001616        0.69      0.69      0.74      0.01         0.01
  YS02001616YS02001619        0.68      0.68      0.69      0.01         0.02
  YS02001619YS02001622        0.67      0.68      0.67      0.87         0.66
  YS02001622YS02001625        0.67      0.67      0.88      0.01         0.01
  YS02001625YS02001629        0.57      0.57      0.88      0.01         0.01
  YS02001629YS02163301        0.86      0.86      0.87      0.40         0.38
  YS02001633YS02163601        0.89      0.89      0.92      0.53         0.53
  YS02001641YS02001644        0.69      0.76      0.69      1.55         0.68
  YS02001644YS02001647        0.42      0.42      0.69      0.05         0.01
  YS02001647YS02001649        0.42      0.42      0.47      0.01         0.01
  YS02001649YS02001757        0.46      0.47      0.46      0.46         0.35
  YS02001652YS02001649        0.35      0.35      0.47      0.01         0.01
  YS02001655YS02001652        0.26      0.26      0.33      0.01         0.01
  YS02001658YS02001655        0.17      0.17      0.26      0.01         0.01
  YS02001661YS02001658        0.02      0.02      0.17      0.01         0.01
  YS02001664YS02001661        0.01      0.01      0.07      0.01         0.01
  YS02001745YS02001748        0.01      0.01      0.09      0.01         0.01
  YS02001748YS02001751        0.14      0.14      0.19      0.01         0.01
  YS02001751YS02001754        0.19      0.19      0.25      0.01         0.01
  YS02001754YS02001757        0.27      0.27      0.46      0.01         0.01
  YS02001757CaochengTiaoxuchi        0.02      0.46      0.38      0.54         0.01
  YS02001759YS02001757        0.38      0.38      0.46      0.03         0.06
  YS02001762YS02001759        0.37      0.37      0.38      0.01         0.03
  YS02001765YS02001762        0.35      0.35      0.37      0.01         0.01
  YS02001767YS02001765        0.33      0.33      0.35      0.02         0.05
  YS02001770YS02001767        0.33      0.34      0.33      0.64         0.33
  YS02001774YS02001770        0.32      0.32      0.37      0.01         0.01
  YS02001779YS02001774        0.27      0.27      0.37      0.01         0.01
  YS02001783YS02001784        0.54      0.56      0.54      0.73         0.54
  YS02001784YS02001785        0.42      0.54      0.42      1.00         0.42
  YS02001786YS02001788        0.01      0.42      0.01      0.85         0.01
  YS02001790YS02001791        0.01      0.01      0.01      0.52         0.01
  YS02001882YS02001884        0.50      0.50      0.51      0.01         0.01
  YS02001884YS02001887        0.54      0.54      0.55      0.01         0.01
  YS02001887YS02001890        0.57      0.57      0.58      0.12         0.01
  YS02001890YS02001895        0.49      0.49      0.60      0.01         0.01
  YS02001895YS02001898        0.49      0.49      0.49      0.01         0.01
  YS02001898YS02001901        0.49      0.49      0.54      0.01         0.01
  YS02001901YS02001904        0.53      0.53      0.54      0.01         0.01
  YS02001904YS02001907        0.53      0.53      0.84      0.01         0.01
  YS02001907YS02006553        1.01      1.01      1.08      0.01         0.01
  YS02001910YS02001907        0.60      0.60      0.81      0.01         0.01
  YS02001915YS02001910        0.50      0.50      0.60      0.01         0.01
  YS02001918YS02001915        0.41      0.41      0.50      0.01         0.01
  YS02001920YS02001918        0.41      0.41      0.43      0.01         0.01
  YS02001923YS02001920        0.37      0.37      0.43      0.01         0.01
  YS02001926YS02001923        0.12      0.12      0.15      0.01         0.01
  YS02001929YS02001926        0.01      0.01      0.15      0.01         0.01
  YS02006553YS02006556        0.70      0.70      0.83      0.01         0.01
  YS02006556YS02006558        0.77      0.77      0.85      0.01         0.01
  YS02006558YS02006561        0.44      0.68      0.44      0.94         0.44
  YS02006561YS02001783        0.38      0.38      0.56      0.01         0.01
  YS02163301YS02001633        0.87      0.87      0.92      0.01         0.02
  YS02163601YS02164001        0.78      0.78      0.92      0.33         0.01
  YS02164001YS02001641        0.76      0.78      0.76      0.80         0.58
  
  
  ***************
  Pumping Summary
  ***************
  
  ---------------------------------------------------------------------------------------------------------
                                                  Min       Avg       Max     Total     Power    % Time Off
                        Percent   Number of      Flow      Flow      Flow    Volume     Usage    Pump Curve
  Pump                 Utilized   Start-Ups       LPS       LPS       LPS  10^6 ltr     Kw-hr    Low   High
  ---------------------------------------------------------------------------------------------------------
  CC-R1                   25.50           2      0.00    683.00    683.00     4.963     82.81    0.0   81.0
  CC-R2                   25.50           2      0.00    683.00    683.00     4.963     82.81    0.0   81.0
  CC-S1                   30.57           3      0.00    200.00    200.00     1.742     13.37    0.0   37.5
  CC-S2                   30.57           3      0.00    200.00    200.00     1.742     13.37    0.0   37.5
  JK-R1                    4.59          60      0.00   1000.00   1000.00     1.309      4.15    0.0    0.0
  JK-R2                    4.59          60      0.00   1000.00   1000.00     1.309      4.15    0.0    0.0
  JK-S                    21.07          95      0.00    300.00    300.00     1.801     40.14    0.0    0.0
  

  Analysis begun on:  Tue Apr 22 10:18:31 2025
  Analysis ended on:  Tue Apr 22 10:18:32 2025
  Total elapsed time: 00:00:01