
  EPA STORM WATER MANAGEMENT MODEL - VERSION 5.2 (Build 5.2.4)
  PYSWMM TOOLKIT API - VERSION v1.0 (2023-11-27)
  ------------------------------------------------------------

  WARNING 04: minimum elevation drop used for Conduit WS02004404WS02004405
  WARNING 03: negative offset ignored for Link YS02001904YS02001907
  
  ****************
  Analysis Options
  ****************
  Flow Units ............... LPS
  Process Models:
    Rainfall/Runoff ........ YES
    RDII ................... NO
    Snowmelt ............... NO
    Groundwater ............ NO
    Flow Routing ........... YES
    Ponding Allowed ........ NO
    Water Quality .......... NO
  Infiltration Method ...... HORTON
  Flow Routing Method ...... DYNWAVE
  Surcharge Method ......... EXTRAN
  Starting Date ............ 08/28/2015 08:00:00
  Ending Date .............. 08/28/2015 16:00:00
  Antecedent Dry Days ...... 8.0
  Report Time Step ......... 00:01:00
  Wet Time Step ............ 00:01:00
  Dry Time Step ............ 00:01:00
  Routing Time Step ........ 30.00 sec
  Variable Time Step ....... YES
  Maximum Trials ........... 8
  Number of Threads ........ 4
  Head Tolerance ........... 0.001500 m
  
  
  **************************        Volume         Depth
  Runoff Quantity Continuity     hectare-m            mm
  **************************     ---------       -------
  Total Precipitation ......         2.995        90.301
  Evaporation Loss .........         0.000         0.000
  Infiltration Loss ........         0.106         3.201
  Surface Runoff ...........         2.857        86.117
  Final Storage ............         0.033         0.999
  Continuity Error (%) .....        -0.018
  
  
  **************************        Volume        Volume
  Flow Routing Continuity        hectare-m      10^6 ltr
  **************************     ---------     ---------
  Dry Weather Inflow .......         0.025         0.248
  Wet Weather Inflow .......         2.856        28.561
  Groundwater Inflow .......         0.000         0.000
  RDII Inflow ..............         0.000         0.000
  External Inflow ..........         0.083         0.825
  External Outflow .........         2.058        20.583
  Flooding Loss ............         1.058        10.581
  Evaporation Loss .........         0.000         0.000
  Exfiltration Loss ........         0.000         0.000
  Initial Stored Volume ....         0.243         2.431
  Final Stored Volume ......         0.100         0.997
  Continuity Error (%) .....        -0.297
  
  
  *************************
  Highest Continuity Errors
  *************************
  Node YS02001884 (5.06%)
  Node WS02006256 (-3.57%)
  Node YS02001583 (-3.53%)
  
  
  ***************************
  Time-Step Critical Elements
  ***************************
  Link WS02004404WS02004405 (25.04%)
  Link WS02006238WS02006235 (23.19%)
  Link WS02003066WSF200 (9.30%)
  Link YS02001791YS02001793 (9.06%)
  Link YS02006556YS02006558 (6.06%)
  
  
  ********************************
  Highest Flow Instability Indexes
  ********************************
  Link WS02006252WS02006251 (39)
  Link WS02006113WS02006111 (37)
  Link WS02006238WS02006235 (26)
  Link WS02004404WS02004405 (25)
  Link WS02004403WS02004404 (23)
  
  
  *********************************
  Most Frequent Nonconverging Nodes
  *********************************
  Node CC-1 (39.16%)
  Node CC-2 (39.16%)
  Node JK-1 (39.16%)
  Node JK-2 (39.16%)
  Node WSC (39.16%)
  
  
  *************************
  Routing Time Step Summary
  *************************
  Minimum Time Step           :     0.02 sec
  Average Time Step           :     2.88 sec
  Maximum Time Step           :     6.43 sec
  % of Time in Steady State   :     0.00
  Average Iterations per Step :     4.75
  % of Steps Not Converging   :    39.16
  Time Step Frequencies       :
     30.000 - 13.228 sec      :     0.00 %
     13.228 -  5.833 sec      :    15.41 %
      5.833 -  2.572 sec      :    29.46 %
      2.572 -  1.134 sec      :    36.79 %
      1.134 -  0.500 sec      :    18.34 %
  
  
  ***************************
  Subcatchment Runoff Summary
  ***************************
  
  ------------------------------------------------------------------------------------------------------------------------------
                            Total      Total      Total      Total     Imperv       Perv      Total       Total     Peak  Runoff
                           Precip      Runon       Evap      Infil     Runoff     Runoff     Runoff      Runoff   Runoff   Coeff
  Subcatchment                 mm         mm         mm         mm         mm         mm         mm    10^6 ltr      LPS
  ------------------------------------------------------------------------------------------------------------------------------
  sub60                     90.30       0.00       0.00       1.89      78.26       8.95      87.21        1.15   723.58   0.966
  sub61                     90.30       0.00       0.00       2.75      73.82      12.61      86.43        1.59  1007.38   0.957
  sub62                     90.30       0.00       0.00       1.26      81.79       5.97      87.76        2.40  1437.83   0.972
  sub63                     90.30       0.00       0.00       5.11      63.15      21.08      84.22        1.91  1172.03   0.933
  sub64                     90.30       0.00       0.00       2.58      75.55      10.97      86.52        2.08  1198.31   0.958
  sub65                     90.30       0.00       0.00       2.23      77.31       9.51      86.82        2.39  1345.27   0.961
  sub66                     90.30       0.00       0.00       6.40      63.03      19.79      82.82        3.86  1891.99   0.917
  sub67                     90.30       0.00       0.00       1.20      81.84       6.02      87.86        1.63  1064.16   0.973
  sub68                     90.30       0.00       0.00       2.28      76.47      10.37      86.84        2.39  1469.39   0.962
  sub69                     90.30       0.00       0.00       2.08      76.64      11.47      88.11        3.26  1789.44   0.976
  sub70                     90.30       0.00       0.00       7.00      59.43      23.70      83.13        2.40  1072.03   0.921
  sub71                     90.30       0.00       0.00       1.30      81.75       5.93      87.68        2.29  1292.71   0.971
  sub72                     90.30       0.00       0.00       1.16      82.57       5.17      87.74        1.21   637.98   0.972
  
  
  ******************
  Node Depth Summary
  ******************
  
  ---------------------------------------------------------------------------------
                                 Average  Maximum  Maximum  Time of Max    Reported
                                   Depth    Depth      HGL   Occurrence   Max Depth
  Node                 Type       Meters   Meters   Meters  days hr:min      Meters
  ---------------------------------------------------------------------------------
  WS02003060           JUNCTION     0.24     0.38     5.31     0  03:14        0.38
  WS02003066           JUNCTION     0.19     0.30     5.85     0  03:16        0.30
  WS02003067           JUNCTION     0.50     0.70     6.02     0  03:16        0.70
  WS02003069           JUNCTION     0.27     0.43     5.01     0  03:17        0.43
  WS02003072           JUNCTION     0.33     0.50     4.87     0  03:18        0.50
  WS02003073           JUNCTION     0.19     0.30     4.36     0  03:18        0.30
  WS02004401           JUNCTION     0.61     0.87     6.87     0  03:14        0.87
  WS02004402           JUNCTION     0.64     0.90     6.86     0  03:14        0.90
  WS02004403           JUNCTION     0.66     0.92     6.85     0  03:14        0.91
  WS02004404           JUNCTION     0.73     1.01     6.86     0  03:14        0.99
  WS02004405           JUNCTION     0.72     0.96     6.81     0  03:15        0.96
  WS02004406           JUNCTION     0.73     0.95     6.78     0  03:14        0.95
  WS02004407           JUNCTION     0.18     0.29     6.61     0  03:14        0.29
  WS02004409           JUNCTION     0.41     0.66     6.43     0  03:15        0.66
  WS02004410           JUNCTION     0.43     0.68     6.40     0  03:15        0.68
  WS02004411           JUNCTION     0.45     0.69     6.37     0  03:15        0.69
  WS02004412           JUNCTION     0.46     0.69     6.33     0  03:16        0.69
  WS02004413           JUNCTION     0.62     0.85     6.32     0  03:16        0.85
  WS02006109           JUNCTION     0.69     1.34     7.96     0  03:09        1.04
  WS02006110           JUNCTION     0.68     1.45     8.04     0  03:00        1.02
  WS02006111           JUNCTION     0.19     0.29     6.99     0  03:11        0.29
  WS02006112           JUNCTION     0.78     1.09     6.97     0  03:08        1.07
  WS02006113           JUNCTION     0.29     0.46     7.35     0  03:10        0.46
  WS02006115           JUNCTION     0.51     0.77     6.91     0  03:13        0.77
  WS02006116           JUNCTION     0.59     0.85     6.89     0  03:13        0.85
  WS02006228           JUNCTION     0.69     1.47     8.12     0  01:55        1.15
  WS02006229           JUNCTION     0.67     1.55     8.25     0  01:55        1.16
  WS02006230           JUNCTION     0.69     1.83     8.58     0  01:55        1.31
  WS02006231           JUNCTION     0.48     2.24     9.36     0  02:57        1.45
  WS02006232           JUNCTION     0.62     1.92     8.96     0  02:57        1.79
  WS02006234           JUNCTION     0.56     1.96     9.12     0  01:54        1.82
  WS02006235           JUNCTION     0.60     2.00     9.16     0  02:00        2.00
  WS02006238           JUNCTION     0.63     2.15     9.29     0  02:30        2.15
  WS02006239           JUNCTION     0.60     2.00     9.21     0  02:55        1.85
  WS02006240           JUNCTION     0.57     1.83     9.13     0  01:59        1.73
  WS02006242           JUNCTION     0.64     1.55     8.82     0  01:56        1.55
  WS02006243           JUNCTION     0.57     1.48     8.90     0  01:58        1.48
  WS02006245           JUNCTION     0.57     1.56     9.04     0  03:37        1.56
  WS02006247           JUNCTION     0.59     1.47     8.97     0  03:37        1.47
  WS02006248           JUNCTION     0.57     1.10     8.69     0  01:47        1.10
  WS02006249           JUNCTION     0.59     1.09     8.69     0  01:42        1.09
  WS02006251           JUNCTION     0.59     1.85     9.52     0  03:17        1.85
  WS02006252           JUNCTION     0.38     1.50     9.74     0  00:00        1.47
  WS02006256           JUNCTION     1.20     2.35     9.28     0  00:00        2.35
  WSF200               JUNCTION     0.17     0.29     5.52     0  03:13        0.29
  YS02001580           JUNCTION     0.19     1.05     9.59     0  02:01        0.80
  YS02001583           JUNCTION     0.22     0.90     9.40     0  02:01        0.82
  YS02001586           JUNCTION     0.34     1.13     9.30     0  02:01        1.13
  YS02001590           JUNCTION     0.47     1.40     9.26     0  02:01        1.39
  YS02001593           JUNCTION     0.40     1.32     9.18     0  02:01        1.30
  YS02001596           JUNCTION     0.54     1.68     9.10     0  02:01        1.67
  YS02001600           JUNCTION     0.64     1.87     9.00     0  01:58        1.87
  YS02001601           JUNCTION     0.83     2.06     8.90     0  01:58        2.06
  YS02001602           JUNCTION     0.72     1.87     8.77     0  02:08        1.87
  YS02001605           JUNCTION     0.66     1.78     8.68     0  02:21        1.78
  YS02001607           JUNCTION     0.61     1.65     8.50     0  02:14        1.65
  YS02001610           JUNCTION     0.65     1.68     8.48     0  02:10        1.68
  YS02001613           JUNCTION     0.61     1.67     8.51     0  02:22        1.67
  YS02001616           JUNCTION     0.55     1.61     8.52     0  02:21        1.61
  YS02001619           JUNCTION     0.53     1.61     8.54     0  02:21        1.61
  YS02001622           JUNCTION     0.51     1.58     8.49     0  02:23        1.58
  YS02001625           JUNCTION     0.75     1.78     8.38     0  02:10        1.78
  YS02001629           JUNCTION     0.66     1.85     8.40     0  02:13        1.85
  YS02001633           JUNCTION     0.73     2.08     8.53     0  02:21        2.08
  YS02001641           JUNCTION     0.68     2.01     8.44     0  02:14        1.95
  YS02001644           JUNCTION     0.66     1.92     8.35     0  02:14        1.92
  YS02001647           JUNCTION     0.44     1.77     8.38     0  02:24        1.77
  YS02001649           JUNCTION     0.49     2.00     8.39     0  02:24        2.00
  YS02001652           JUNCTION     0.37     1.86     8.46     0  02:24        1.86
  YS02001655           JUNCTION     0.27     1.67     8.52     0  02:24        1.67
  YS02001658           JUNCTION     0.20     1.46     8.60     0  02:24        1.45
  YS02001661           JUNCTION     0.20     1.26     8.67     0  02:24        1.25
  YS02001664           JUNCTION     0.09     0.75     8.67     0  02:24        0.73
  YS02001745           JUNCTION     0.10     0.88     8.39     0  02:24        0.87
  YS02001748           JUNCTION     0.18     1.30     8.38     0  02:24        1.29
  YS02001751           JUNCTION     0.22     1.47     8.35     0  02:24        1.47
  YS02001754           JUNCTION     0.31     1.71     8.32     0  02:24        1.71
  YS02001757           JUNCTION     0.49     2.04     8.30     0  02:24        2.04
  YS02001759           JUNCTION     0.44     2.07     8.44     0  02:24        2.07
  YS02001762           JUNCTION     0.42     2.04     8.44     0  02:24        2.04
  YS02001765           JUNCTION     0.40     2.01     8.46     0  02:14        2.01
  YS02001767           JUNCTION     0.40     2.03     8.52     0  02:14        2.03
  YS02001770           JUNCTION     0.41     1.95     8.44     0  02:14        1.95
  YS02001774           JUNCTION     0.47     2.05     8.47     0  02:14        2.05
  YS02001779           JUNCTION     0.30     1.68     8.37     0  02:13        1.68
  YS02001783           JUNCTION     0.38     1.26     7.40     0  02:10        1.24
  YS02001784           JUNCTION     0.38     1.14     7.21     0  02:10        1.13
  YS02001786           JUNCTION     0.31     0.89     6.92     0  02:10        0.88
  YS02001788           JUNCTION     0.23     0.63     6.60     0  02:23        0.62
  YS02001790           JUNCTION     0.27     0.73     6.38     0  02:24        0.72
  YS02001791           JUNCTION     0.17     0.45     5.92     0  02:23        0.43
  YS02001793           JUNCTION     0.09     0.25     5.08     0  02:22        0.24
  YS02001882           JUNCTION     0.46     1.83     8.55     0  02:10        1.83
  YS02001884           JUNCTION     0.55     1.93     8.55     0  02:10        1.93
  YS02001887           JUNCTION     0.62     2.00     8.54     0  02:10        2.00
  YS02001890           JUNCTION     0.65     1.81     8.32     0  02:10        1.81
  YS02001895           JUNCTION     0.43     1.74     8.48     0  02:10        1.74
  YS02001898           JUNCTION     0.44     1.77     8.51     0  02:10        1.77
  YS02001901           JUNCTION     0.54     1.87     8.48     0  02:10        1.87
  YS02001904           JUNCTION     0.52     1.81     8.44     0  02:10        1.81
  YS02001907           JUNCTION     0.83     1.96     8.25     0  02:10        1.96
  YS02001910           JUNCTION     0.65     2.01     8.51     0  02:24        2.00
  YS02001915           JUNCTION     0.48     2.00     8.72     0  02:25        2.00
  YS02001918           JUNCTION     0.30     1.70     8.77     0  02:25        1.70
  YS02001920           JUNCTION     0.38     1.78     8.79     0  02:25        1.78
  YS02001923           JUNCTION     0.24     1.56     8.82     0  02:25        1.55
  YS02001926           JUNCTION     0.25     1.40     8.85     0  02:25        1.39
  YS02001929           JUNCTION     0.16     1.17     8.86     0  02:25        1.16
  YS02006553           JUNCTION     0.83     2.05     8.33     0  02:10        2.05
  YS02006556           JUNCTION     0.80     2.07     8.38     0  02:10        2.07
  YS02006558           JUNCTION     0.84     2.11     8.38     0  02:10        2.11
  YS02006561           JUNCTION     0.24     0.95     7.61     0  02:10        0.91
  YS02163301           JUNCTION     0.68     1.96     8.48     0  02:21        1.96
  YS02163601           JUNCTION     0.75     2.08     8.48     0  02:14        2.04
  YS02164001           JUNCTION     0.67     2.03     8.49     0  02:14        1.95
  CC-1                 OUTFALL      0.00     0.00     0.00     0  00:00        0.00
  CC-2                 OUTFALL      0.00     0.00     0.00     0  00:00        0.00
  JK-1                 OUTFALL      0.00     0.00     0.00     0  00:00        0.00
  JK-2                 OUTFALL      0.00     0.00     0.00     0  00:00        0.00
  WSC                  OUTFALL      0.19     0.30     0.97     0  03:19        0.30
  CC-storage           STORAGE      0.47     1.32     6.82     0  02:57        1.32
  JK-storage           STORAGE      0.20     2.99     3.79     0  00:00        0.68
  
  
  *******************
  Node Inflow Summary
  *******************
  
  -------------------------------------------------------------------------------------------------
                                  Maximum  Maximum                  Lateral       Total        Flow
                                  Lateral    Total  Time of Max      Inflow      Inflow     Balance
                                   Inflow   Inflow   Occurrence      Volume      Volume       Error
  Node                 Type           LPS      LPS  days hr:min    10^6 ltr    10^6 ltr     Percent
  -------------------------------------------------------------------------------------------------
  WS02003060           JUNCTION     16.53   548.37     0  03:16       0.471        5.28       0.039
  WS02003066           JUNCTION      0.00   531.38     0  03:16           0        4.81       0.031
  WS02003067           JUNCTION      0.00   531.30     0  03:16           0        4.81       0.085
  WS02003069           JUNCTION      0.32   548.60     0  03:17     0.00912        5.28       0.074
  WS02003072           JUNCTION      0.00   547.70     0  03:18           0        5.28       0.134
  WS02003073           JUNCTION      1.82   548.89     0  03:18      0.0519        5.32       0.102
  WS02004401           JUNCTION      0.00   539.64     0  03:10           0        4.91       0.209
  WS02004402           JUNCTION      0.00   540.82     0  03:10           0         4.9       0.213
  WS02004403           JUNCTION      0.00   541.56     0  03:02           0        4.89       0.207
  WS02004404           JUNCTION      0.16   550.29     0  03:14     0.00462        4.88       0.134
  WS02004405           JUNCTION      0.04   595.66     0  03:14     0.00109        4.88       0.189
  WS02004406           JUNCTION      0.00   537.47     0  03:14           0        4.87       0.430
  WS02004407           JUNCTION      0.00   534.44     0  03:14           0        4.85       0.022
  WS02004409           JUNCTION      0.00   534.09     0  03:14           0        4.85       0.054
  WS02004410           JUNCTION      0.00   533.24     0  03:15           0        4.84       0.092
  WS02004411           JUNCTION      0.00   532.33     0  03:15           0        4.84       0.116
  WS02004412           JUNCTION      0.00   532.43     0  03:15           0        4.83       0.153
  WS02004413           JUNCTION      0.00   531.64     0  03:16           0        4.83       0.284
  WS02006109           JUNCTION      1.23   563.13     0  01:59      0.0351        4.96       0.211
  WS02006110           JUNCTION      0.00   562.54     0  01:55           0        4.95       0.111
  WS02006111           JUNCTION      0.00   560.33     0  01:46           0        4.94       0.016
  WS02006112           JUNCTION      0.00   543.88     0  03:07           0        4.94       0.420
  WS02006113           JUNCTION      0.00   568.58     0  03:09           0        4.94       0.040
  WS02006115           JUNCTION      0.00   548.94     0  01:51           0        4.92       0.144
  WS02006116           JUNCTION      0.00   539.17     0  03:11           0        4.91       0.031
  WS02006228           JUNCTION      0.00   559.49     0  03:00           0        4.93       0.084
  WS02006229           JUNCTION      0.00   558.98     0  03:00           0        4.93       0.114
  WS02006230           JUNCTION     10.28   599.17     0  03:02       0.293        4.93      -0.011
  WS02006231           JUNCTION      0.00   582.79     0  03:23           0        4.63      -0.123
  WS02006232           JUNCTION      0.00   581.86     0  03:23           0        4.65       0.369
  WS02006234           JUNCTION      0.00   576.81     0  03:23           0        4.63      -0.515
  WS02006235           JUNCTION      0.00   593.62     0  01:40           0        4.77       0.427
  WS02006238           JUNCTION      0.00   423.59     0  03:04           0        3.54       0.029
  WS02006239           JUNCTION      0.00   423.04     0  03:44           0        3.46       0.068
  WS02006240           JUNCTION      0.00   422.56     0  03:44           0         3.4       0.037
  WS02006242           JUNCTION      0.00   424.13     0  03:44           0        3.37       0.009
  WS02006243           JUNCTION      0.00   424.97     0  03:44           0        3.35      -0.068
  WS02006245           JUNCTION      0.00   425.70     0  03:44           0        3.35       0.193
  WS02006247           JUNCTION      0.00   426.84     0  03:44           0        3.35      -0.004
  WS02006248           JUNCTION      0.00   425.39     0  03:44           0        3.37       0.099
  WS02006249           JUNCTION      0.00   476.24     0  03:17           0        3.63       0.227
  WS02006251           JUNCTION      0.08   423.77     0  03:17     0.00219        3.63      -0.068
  WS02006252           JUNCTION      0.00   400.00     0  00:00           0        3.62       0.013
  WS02006256           JUNCTION      0.00   348.13     0  02:49           0        1.94      -3.443
  WSF200               JUNCTION      0.00   531.42     0  03:16           0        4.81       0.008
  YS02001580           JUNCTION      0.00    56.91     0  02:01           0     0.00418       1.818
  YS02001583           JUNCTION      0.00    88.87     0  02:01           0      0.0158      -3.414
  YS02001586           JUNCTION   1072.03  1072.03     0  02:26         2.4        2.41       0.037
  YS02001590           JUNCTION      0.00   318.15     0  02:34           0        1.65      -0.039
  YS02001593           JUNCTION      0.00   318.02     0  02:30           0        1.65       0.016
  YS02001596           JUNCTION      0.00   317.95     0  02:40           0        1.65       0.003
  YS02001600           JUNCTION      0.00   318.14     0  02:38           0        1.65       0.015
  YS02001601           JUNCTION   1789.44  2107.03     0  02:25        3.26        4.91       0.023
  YS02001602           JUNCTION      0.00   498.72     0  02:55           0        2.74       0.019
  YS02001605           JUNCTION      0.00   498.57     0  02:55           0         2.6       0.024
  YS02001607           JUNCTION      0.00   498.84     0  02:55           0         2.6       0.080
  YS02001610           JUNCTION      0.00   949.95     0  02:28           0        3.13       0.084
  YS02001613           JUNCTION      0.00   613.51     0  02:27           0         2.5       0.066
  YS02001616           JUNCTION      0.00   613.63     0  02:27           0         2.5       0.021
  YS02001619           JUNCTION   1891.99  1891.99     0  02:26        3.86        5.83       0.004
  YS02001622           JUNCTION      0.00  1053.77     0  02:26           0        5.24       0.003
  YS02001625           JUNCTION      0.00  1505.21     0  02:29           0        5.61       0.161
  YS02001629           JUNCTION      0.00   938.38     0  02:09           0        4.36       0.026
  YS02001633           JUNCTION   1345.47  1360.53     0  02:09         2.4        6.32       0.056
  YS02001641           JUNCTION      0.00  1368.61     0  02:10           0        5.88       0.050
  YS02001644           JUNCTION   1198.34  1858.97     0  02:25        2.08        7.95       0.043
  YS02001647           JUNCTION      0.00  1752.32     0  02:10           0        7.21       0.008
  YS02001649           JUNCTION      0.00  2005.92     0  02:13           0        9.13       0.007
  YS02001652           JUNCTION      0.00  1181.51     0  02:25           0        1.92      -0.041
  YS02001655           JUNCTION      0.15  1181.89     0  02:25     0.00439        1.92       0.027
  YS02001658           JUNCTION      0.00  1181.44     0  02:25           0        1.91      -0.034
  YS02001661           JUNCTION      0.00  1180.98     0  02:25           0        1.91       0.016
  YS02001664           JUNCTION   1172.03  1172.03     0  02:25        1.91        1.91      -0.006
  YS02001745           JUNCTION    723.59   723.59     0  02:25        1.15        1.15       0.086
  YS02001748           JUNCTION      0.04   725.93     0  02:25     0.00128        1.15      -0.105
  YS02001751           JUNCTION      0.01   726.70     0  02:25    0.000313        1.15       0.048
  YS02001754           JUNCTION      0.26   726.80     0  02:25     0.00741        1.15      -0.100
  YS02001757           JUNCTION      0.00  3629.54     0  02:24           0        13.9       0.046
  YS02001759           JUNCTION   1007.42  1515.42     0  02:25        1.59        3.64      -0.005
  YS02001762           JUNCTION      0.00   821.36     0  02:31           0        2.06       0.006
  YS02001765           JUNCTION      0.00   820.59     0  02:31           0        2.06       0.009
  YS02001767           JUNCTION      0.54   820.03     0  02:31      0.0152        2.06       0.007
  YS02001770           JUNCTION   1437.98  1437.98     0  02:25        2.41        2.45      -0.010
  YS02001774           JUNCTION      0.00   846.27     0  02:26           0       0.418       0.289
  YS02001779           JUNCTION      0.01   846.09     0  02:26    0.000142       0.375      -0.061
  YS02001783           JUNCTION      0.00  1167.73     0  02:24           0        5.06       0.006
  YS02001784           JUNCTION      1.06  1168.23     0  02:24      0.0302        5.09       0.010
  YS02001786           JUNCTION      0.06  1169.14     0  02:24      0.0016         5.1       0.015
  YS02001788           JUNCTION      0.07  1170.47     0  02:24     0.00202         5.1       0.005
  YS02001790           JUNCTION      0.15  1181.27     0  02:24     0.00442         5.1       0.015
  YS02001791           JUNCTION      0.00  1303.90     0  02:23           0         5.1      -0.022
  YS02001793           JUNCTION      0.00  1261.64     0  02:24           0         5.1      -0.014
  YS02001882           JUNCTION      0.00    29.97     0  02:06           0      0.0133       5.052
  YS02001884           JUNCTION      0.00    37.59     0  02:05           0      0.0492       5.332
  YS02001887           JUNCTION   1064.61  1064.61     0  02:25        1.65        1.68       0.267
  YS02001890           JUNCTION      0.00  1065.10     0  02:25           0        1.64       0.321
  YS02001895           JUNCTION      0.00   518.38     0  02:24           0        1.41       0.124
  YS02001898           JUNCTION      0.00   517.82     0  02:26           0        1.41       0.008
  YS02001901           JUNCTION      0.00   517.28     0  02:24           0        1.41       0.240
  YS02001904           JUNCTION      0.00   517.52     0  02:24           0        1.42       0.202
  YS02001907           JUNCTION      0.00  2759.68     0  02:25           0        5.05       0.360
  YS02001910           JUNCTION      0.00  1938.34     0  02:25           0        3.58       0.202
  YS02001915           JUNCTION   1292.73  1938.75     0  02:25        2.29         3.6       0.043
  YS02001918           JUNCTION      0.00   646.98     0  02:25           0        1.31       0.020
  YS02001920           JUNCTION      2.87   646.13     0  02:25      0.0818         1.3       0.077
  YS02001923           JUNCTION      0.04   640.59     0  02:25     0.00107        1.22      -0.008
  YS02001926           JUNCTION      0.05   639.98     0  02:25     0.00149        1.21       0.006
  YS02001929           JUNCTION    637.98   637.98     0  02:26        1.21        1.21      -0.009
  YS02006553           JUNCTION      0.00   802.40     0  02:42           0        2.83       0.421
  YS02006556           JUNCTION      0.00   803.26     0  02:42           0        2.84       0.290
  YS02006558           JUNCTION   1470.27  1470.27     0  02:25        2.41        5.16       0.064
  YS02006561           JUNCTION      0.00  1167.04     0  02:24           0        5.06       0.000
  YS02163301           JUNCTION      0.00   938.48     0  02:09           0        4.37       0.040
  YS02163601           JUNCTION      0.11  1360.45     0  02:09     0.00313        5.87       0.087
  YS02164001           JUNCTION      0.00  1360.16     0  02:09           0        5.87       0.044
  CC-1                 OUTFALL       0.00   683.00     0  00:00           0        5.96       0.000
  CC-2                 OUTFALL       0.00   683.00     0  00:00           0        5.96       0.000
  JK-1                 OUTFALL       0.00  1000.00     0  00:00           0        1.67       0.000
  JK-2                 OUTFALL       0.00  1000.00     0  00:00           0        1.67       0.000
  WSC                  OUTFALL       0.00   548.48     0  03:19           0        5.32       0.000
  CC-storage           STORAGE       0.00  3629.75     0  02:24           0        16.2      -0.284
  JK-storage           STORAGE       0.00  1353.86     0  02:22           0        5.25      -0.366
  
  
  **********************
  Node Surcharge Summary
  **********************
  
  Surcharging occurs when water rises above the top of the highest conduit.
  ---------------------------------------------------------------------
                                               Max. Height   Min. Depth
                                   Hours       Above Crown    Below Rim
  Node                 Type      Surcharged         Meters       Meters
  ---------------------------------------------------------------------
  WS02004404           JUNCTION        0.01          0.013        2.767
  WS02006109           JUNCTION        2.22          0.520        1.300
  WS02006110           JUNCTION        0.48          0.543        1.307
  WS02006112           JUNCTION        1.60          0.092        1.588
  WS02006228           JUNCTION        2.20          0.644        1.556
  WS02006229           JUNCTION        2.23          0.753        1.697
  WS02006230           JUNCTION        0.58          0.752        0.818
  WS02006231           JUNCTION        1.25          1.530        0.000
  WS02006232           JUNCTION        2.30          1.220        0.260
  WS02006234           JUNCTION        1.76          1.240        0.000
  WS02006235           JUNCTION        1.97          1.290        0.000
  WS02006238           JUNCTION        2.17          1.430        0.000
  WS02006239           JUNCTION        2.16          1.262        0.028
  WS02006240           JUNCTION        2.24          1.124        0.266
  WS02006242           JUNCTION        2.33          0.820        0.000
  WS02006243           JUNCTION        2.25          0.770        0.000
  WS02006245           JUNCTION        2.25          0.850        0.000
  WS02006247           JUNCTION        2.26          0.760        0.000
  WS02006248           JUNCTION        2.23          0.380        0.000
  WS02006249           JUNCTION        2.25          0.390        0.000
  WS02006251           JUNCTION        1.67          0.824        0.356
  WS02006252           JUNCTION        2.51          1.100        0.000
  WS02006256           JUNCTION        5.66          2.050        0.000
  YS02001580           JUNCTION        0.86          0.450        0.000
  YS02001583           JUNCTION        0.87          0.260        0.240
  YS02001586           JUNCTION        0.99          0.510        0.000
  YS02001590           JUNCTION        1.08          0.750        0.000
  YS02001593           JUNCTION        1.07          0.702        0.138
  YS02001596           JUNCTION        1.20          0.950        0.120
  YS02001600           JUNCTION        1.37          1.190        0.000
  YS02001601           JUNCTION        1.73          1.440        0.000
  YS02001602           JUNCTION        1.62          1.270        0.000
  YS02001605           JUNCTION        1.56          1.179        0.001
  YS02001607           JUNCTION        1.02          0.648        0.032
  YS02001610           JUNCTION        1.04          0.680        0.000
  YS02001613           JUNCTION        1.00          0.670        0.030
  YS02001616           JUNCTION        0.96          0.610        0.000
  YS02001619           JUNCTION        0.94          0.610        0.000
  YS02001622           JUNCTION        0.93          0.585        0.035
  YS02001625           JUNCTION        1.14          0.780        0.000
  YS02001629           JUNCTION        0.82          0.470        0.000
  YS02001633           JUNCTION        1.15          1.057        0.003
  YS02001641           JUNCTION        1.04          1.007        0.093
  YS02001644           JUNCTION        0.98          0.920        0.000
  YS02001647           JUNCTION        0.65          0.770        0.130
  YS02001649           JUNCTION        0.74          0.996        0.054
  YS02001652           JUNCTION        0.55          0.829        0.301
  YS02001655           JUNCTION        0.41          0.675        0.525
  YS02001658           JUNCTION        0.29          0.462        0.838
  YS02001661           JUNCTION        0.10          0.193        1.197
  YS02001748           JUNCTION        0.17          0.220        0.970
  YS02001751           JUNCTION        0.31          0.471        0.729
  YS02001754           JUNCTION        0.43          0.665        0.485
  YS02001757           JUNCTION        0.76          1.036        0.174
  YS02001759           JUNCTION        0.65          1.074        0.136
  YS02001762           JUNCTION        0.63          1.038        0.112
  YS02001765           JUNCTION        0.59          1.014        0.086
  YS02001767           JUNCTION        0.56          1.030        0.000
  YS02001770           JUNCTION        0.54          0.920        0.000
  YS02001774           JUNCTION        0.62          1.050        0.000
  YS02001779           JUNCTION        0.44          0.680        0.000
  YS02001783           JUNCTION        0.75          0.462        1.138
  YS02001784           JUNCTION        0.72          0.338        1.152
  YS02001786           JUNCTION        0.58          0.093        1.337
  YS02001882           JUNCTION        0.68          0.830        0.000
  YS02001884           JUNCTION        0.69          0.870        0.000
  YS02001887           JUNCTION        0.73          0.950        0.000
  YS02001890           JUNCTION        0.75          0.760        0.000
  YS02001895           JUNCTION        0.66          0.737        0.013
  YS02001898           JUNCTION        0.65          0.740        0.000
  YS02001901           JUNCTION        0.71          0.870        0.000
  YS02001904           JUNCTION        0.70          0.807        0.043
  YS02001907           JUNCTION        1.08          0.950        0.000
  YS02001910           JUNCTION        0.78          1.007        0.093
  YS02001915           JUNCTION        0.67          0.998        0.002
  YS02001918           JUNCTION        0.57          0.700        0.110
  YS02001920           JUNCTION        0.59          0.784        0.356
  YS02001923           JUNCTION        0.20          0.345        0.475
  YS02001926           JUNCTION        0.24          0.401        0.499
  YS02001929           JUNCTION        0.08          0.171        0.609
  YS02006553           JUNCTION        1.10          1.049        0.141
  YS02006556           JUNCTION        0.91          1.029        0.321
  YS02006558           JUNCTION        0.89          1.014        0.386
  YS02006561           JUNCTION        0.53          0.145        1.005
  YS02163301           JUNCTION        1.13          0.961        0.069
  YS02163601           JUNCTION        1.18          1.080        0.000
  YS02164001           JUNCTION        1.05          1.030        0.070
  
  
  *********************
  Node Flooding Summary
  *********************
  
  Flooding refers to all water that overflows a node, whether it ponds or not.
  --------------------------------------------------------------------------
                                                             Total   Maximum
                                 Maximum   Time of Max       Flood    Ponded
                        Hours       Rate    Occurrence      Volume     Depth
  Node                 Flooded       LPS   days hr:min    10^6 ltr    Meters
  --------------------------------------------------------------------------
  WS02006231              0.01     65.16      0  02:57       0.000     0.000
  WS02006234              0.01    165.41      0  01:54       0.001     0.000
  WS02006235              0.01     57.78      0  02:55       0.000     0.000
  WS02006238              0.01     30.89      0  02:30       0.000     0.000
  WS02006242              0.02     26.76      0  01:59       0.001     0.000
  WS02006243              0.01      0.75      0  02:23       0.000     0.000
  WS02006245              0.01      1.50      0  03:37       0.000     0.000
  WS02006247              0.01      2.61      0  03:37       0.000     0.000
  WS02006248              0.23     35.19      0  02:30       0.012     0.000
  WS02006249              1.47     97.71      0  03:17       0.253     0.000
  WS02006252              0.01    245.63      0  00:00       0.000     0.000
  WS02006256              1.79    321.14      0  02:49       0.691     0.000
  YS02001580              0.01     24.13      0  02:01       0.000     0.000
  YS02001586              0.70    754.35      0  02:26       0.755     0.000
  YS02001590              0.01      3.74      0  02:01       0.000     0.000
  YS02001600              0.01      2.17      0  02:01       0.000     0.000
  YS02001601              0.90   1709.00      0  02:25       2.168     0.000
  YS02001602              0.67     62.19      0  02:21       0.139     0.000
  YS02001610              0.61    949.51      0  02:27       1.157     0.000
  YS02001616              0.07      1.46      0  02:29       0.000     0.000
  YS02001619              0.11    228.99      0  02:26       0.052     0.000
  YS02001625              0.53   1505.02      0  02:29       1.680     0.000
  YS02001629              0.22    240.18      0  02:25       0.072     0.000
  YS02001644              0.26   1648.91      0  02:25       0.727     0.000
  YS02001767              0.01      2.63      0  02:14       0.000     0.000
  YS02001770              0.05     99.72      0  02:25       0.008     0.000
  YS02001774              0.01     13.87      0  02:14       0.000     0.000
  YS02001779              0.23    845.86      0  02:26       0.357     0.000
  YS02001882              0.01      0.89      0  02:10       0.000     0.000
  YS02001884              0.01      1.17      0  02:10       0.000     0.000
  YS02001887              0.01      0.64      0  02:10       0.000     0.000
  YS02001890              0.27    548.55      0  02:25       0.223     0.000
  YS02001898              0.01      1.29      0  02:10       0.000     0.000
  YS02001901              0.01      0.60      0  02:10       0.000     0.000
  YS02001907              0.51   2759.64      0  02:25       2.285     0.000
  YS02163601              0.01      5.41      0  02:14       0.000     0.000
  
  
  **********************
  Storage Volume Summary
  **********************
  
  ------------------------------------------------------------------------------------------------
                         Average    Avg   Evap  Exfil     Maximum    Max    Time of Max    Maximum
                          Volume   Pcnt   Pcnt   Pcnt      Volume   Pcnt     Occurrence    Outflow
  Storage Unit           1000 m³   Full   Loss   Loss     1000 m³   Full    days hr:min        LPS
  ------------------------------------------------------------------------------------------------
  CC-storage               1.313   20.5    0.0    0.0       3.683   57.5       0  02:57    1783.53
  JK-storage               0.010    3.4    0.0    0.0       0.150   51.6       0  00:00    2300.00
  
  
  ***********************
  Outfall Loading Summary
  ***********************
  
  -----------------------------------------------------------
                         Flow       Avg       Max       Total
                         Freq      Flow      Flow      Volume
  Outfall Node           Pcnt       LPS       LPS    10^6 ltr
  -----------------------------------------------------------
  CC-1                  54.48    683.00    683.00       5.964
  CC-2                  54.48    683.00    683.00       5.964
  JK-1                  10.62   1000.00   1000.00       1.668
  JK-2                  10.62   1000.00   1000.00       1.668
  WSC                   99.94    281.79    548.48       5.319
  -----------------------------------------------------------
  System                46.03   3647.79   3905.63      20.583
  
  
  ********************
  Link Flow Summary
  ********************
  
  -----------------------------------------------------------------------------
                                 Maximum  Time of Max   Maximum    Max/    Max/
                                  |Flow|   Occurrence   |Veloc|    Full    Full
  Link                 Type          LPS  days hr:min     m/sec    Flow   Depth
  -----------------------------------------------------------------------------
  1                    CONDUIT    548.48     0  03:19      2.82    0.19    0.30
  WS02003060WS02003069 CONDUIT    548.28     0  03:17      1.64    0.21    0.34
  WS02003066WSF200     CONDUIT    531.42     0  03:16      2.85    0.09    0.22
  WS02003067WS02003066 CONDUIT    531.38     0  03:16      1.20    0.17    0.41
  WS02003069WS02003072 CONDUIT    547.70     0  03:18      1.37    0.26    0.38
  WS02003072WS02003073 CONDUIT    547.07     0  03:18      1.43    1.18    0.37
  WS02004401WS02004402 CONDUIT    540.82     0  03:10      1.22    0.65    0.88
  WS02004402WS02004403 CONDUIT    541.56     0  03:02      1.24    0.78    0.91
  WS02004403WS02004404 CONDUIT    550.13     0  03:14      1.24    0.40    0.96
  WS02004404WS02004405 CONDUIT    595.63     0  03:14      1.45    5.84    0.97
  WS02004405WS02004406 CONDUIT    537.47     0  03:14      1.46    1.06    0.96
  WS02004406WS02004407 CONDUIT    534.44     0  03:14      1.04    0.24    0.62
  WS02004407WS02004409 CONDUIT    534.09     0  03:14      1.59    0.19    0.48
  WS02004409WS02004410 CONDUIT    533.24     0  03:15      1.06    0.69    0.67
  WS02004410WS02004411 CONDUIT    532.33     0  03:15      1.13    0.73    0.68
  WS02004411WS02004412 CONDUIT    532.43     0  03:15      1.20    0.76    0.69
  WS02004412WS02004413 CONDUIT    531.64     0  03:16      1.22    0.36    0.77
  WS02004413WS02003067 CONDUIT    531.30     0  03:16      1.10    0.23    0.59
  WS02006109WS02006110 CONDUIT    562.54     0  01:55      1.12    1.08    1.00
  WS02006110WS02006113 CONDUIT    568.58     0  03:09      1.37    0.52    0.78
  WS02006111WS02006112 CONDUIT    543.88     0  03:07      1.95    0.26    0.67
  WS02006112WS02006115 CONDUIT    548.94     0  01:51      0.86    0.32    0.88
  WS02006113WS02006111 CONDUIT    560.33     0  01:46      2.47    0.67    0.46
  WS02006115WS02006116 CONDUIT    539.17     0  03:11      1.29    0.69    0.78
  WS02006116WS02004401 CONDUIT    539.64     0  03:10      1.21    0.74    0.86
  WS02006228WS02006109 CONDUIT    561.90     0  01:59      1.12    2.46    1.00
  WS02006229WS02006228 CONDUIT    559.49     0  03:00      1.12    1.85    1.00
  WS02006230WS02006229 CONDUIT    558.98     0  03:00      1.45   12.44    1.00
  WS02006231WS02006230 CONDUIT    588.89     0  03:02      1.60    8.93    1.00
  WS02006232WS02006231 CONDUIT    582.79     0  03:23      1.52    1.22    1.00
  WS02006234WS02006232 CONDUIT    581.86     0  03:23      1.51    1.18    1.00
  WS02006235WS02006234 CONDUIT    576.81     0  03:23      1.51    6.09    1.00
  WS02006238WS02006235 CONDUIT    425.25     0  03:04      1.45    0.95    1.00
  WS02006239WS02006238 CONDUIT    423.59     0  03:04      1.11    1.36    1.00
  WS02006240WS02006239 CONDUIT    423.04     0  03:44      1.24    1.33    1.00
  WS02006242WS02006240 CONDUIT    422.56     0  03:44      1.16    1.68    1.00
  WS02006243WS02006242 CONDUIT    424.13     0  03:44      1.38    0.91    1.00
  WS02006245WS02006243 CONDUIT    424.97     0  03:44      1.44    1.26    1.00
  WS02006247WS02006245 CONDUIT    425.70     0  03:44      1.43    3.38    1.00
  WS02006248WS02006247 CONDUIT    426.84     0  03:44      1.42    0.93    1.00
  WS02006249WS02006248 CONDUIT    425.39     0  03:44      1.36    2.33    1.00
  WS02006251WS02006249 CONDUIT    476.24     0  03:17      2.00    1.37    1.00
  WS02006252WS02006251 CONDUIT    423.69     0  03:17      4.89    1.56    1.00
  WS02006256WS02006235 CONDUIT    288.91     0  00:00      4.23    3.06    1.00
  WSF200WS02003060     CONDUIT    531.84     0  03:16      2.06    0.12    0.28
  YS02001580YS02001583 CONDUIT     56.91     0  02:01      0.44    0.22    1.00
  YS02001583YS02001586 CONDUIT     88.87     0  02:01      0.38    0.13    1.00
  YS02001586YS02001590 CONDUIT    318.15     0  02:34      1.25    0.56    1.00
  YS02001590YS02001593 CONDUIT    318.02     0  02:30      1.13    2.00    1.00
  YS02001593YS02001596 CONDUIT    317.95     0  02:40      1.80    0.50    1.00
  YS02001596YS02001600 CONDUIT    318.14     0  02:38      1.30    0.62    1.00
  YS02001600YS02001601 CONDUIT    318.27     0  02:34      1.13    0.55    1.00
  YS02001601YS02001602 CONDUIT    498.72     0  02:55      1.76    1.80    1.00
  YS02001602YS02001605 CONDUIT    498.57     0  02:55      1.76   10.55    1.00
  YS02001605YS02001607 CONDUIT    498.84     0  02:55      1.76    2.74    1.00
  YS02001607YS02001610 CONDUIT    499.19     0  02:55      0.64    0.47    1.00
  YS02001610YS02001613 CONDUIT    613.72     0  02:27      0.78    0.71    1.00
  YS02001613YS02001616 CONDUIT    613.51     0  02:27      0.78    0.53    1.00
  YS02001616YS02001619 CONDUIT    613.63     0  02:27      0.78    1.07    1.00
  YS02001619YS02001622 CONDUIT   1053.77     0  02:26      1.34    1.55    1.00
  YS02001622YS02001625 CONDUIT   1053.66     0  02:29      1.34    0.56    1.00
  YS02001625YS02001629 CONDUIT    938.38     0  02:09      1.19    0.45    1.00
  YS02001629YS02163301 CONDUIT    938.48     0  02:09      1.19    1.16    1.00
  YS02001633YS02163601 CONDUIT   1360.34     0  02:09      1.73    1.43    1.00
  YS02001641YS02001644 CONDUIT   1373.19     0  02:10      1.75    4.44    1.00
  YS02001644YS02001647 CONDUIT   1752.32     0  02:10      2.23    1.03    1.00
  YS02001647YS02001649 CONDUIT   1735.49     0  02:10      2.27    0.92    1.00
  YS02001649YS02001757 CONDUIT   2006.95     0  02:10      2.56    1.22    1.00
  YS02001652YS02001649 CONDUIT   1181.76     0  02:25      1.50    0.59    1.00
  YS02001655YS02001652 CONDUIT   1181.51     0  02:25      1.50    0.57    1.00
  YS02001658YS02001655 CONDUIT   1181.74     0  02:25      1.78    0.50    1.00
  YS02001661YS02001658 CONDUIT   1181.44     0  02:25      2.24    0.46    1.00
  YS02001664YS02001661 CONDUIT   1180.98     0  02:25      2.23    0.37    0.87
  YS02001745YS02001748 CONDUIT    725.89     0  02:25      2.09    0.28    0.94
  YS02001748YS02001751 CONDUIT    726.69     0  02:25      1.60    0.37    1.00
  YS02001751YS02001754 CONDUIT    726.54     0  02:25      1.33    0.35    1.00
  YS02001754YS02001757 CONDUIT    726.72     0  02:25      0.93    0.29    1.00
  YS02001757CaochengTiaoxuchi CONDUIT   3629.75     0  02:24      5.99    1.57    1.00
  YS02001759YS02001757 CONDUIT   1516.63     0  02:25      1.93    1.08    1.00
  YS02001762YS02001759 CONDUIT    822.32     0  02:31      1.05    0.95    1.00
  YS02001765YS02001762 CONDUIT    821.36     0  02:31      1.05    0.77    1.00
  YS02001767YS02001765 CONDUIT    820.59     0  02:31      1.04    1.03    1.00
  YS02001770YS02001767 CONDUIT    819.50     0  02:31      1.04    3.25    1.00
  YS02001774YS02001770 CONDUIT    846.27     0  02:26      1.08    0.54    1.00
  YS02001779YS02001774 CONDUIT    846.08     0  02:26      1.08    0.43    1.00
  YS02001783YS02001784 CONDUIT   1167.17     0  02:24      2.32    1.61    1.00
  YS02001784YS02001785 CONDUIT   1169.08     0  02:24      2.33    2.72    1.00
  YS02001786YS02001788 CONDUIT   1170.40     0  02:24      2.49    2.26    0.89
  YS02001788YS02001790 CONDUIT   1181.11     0  02:24      2.73    0.87    0.85
  YS02001790YS02001791 CONDUIT   1303.90     0  02:23      3.44    1.42    0.71
  YS02001791YS02001793 CONDUIT   1261.64     0  02:24      6.79    0.54    0.42
  YS02001793JiankangQianchi CONDUIT   1353.86     0  02:22     14.85    0.11    0.50
  YS02001882YS02001884 CONDUIT     29.97     0  02:06      0.16    0.03    1.00
  YS02001884YS02001887 CONDUIT     37.59     0  02:05      0.12    0.05    1.00
  YS02001887YS02001890 CONDUIT   1065.10     0  02:25      1.36    1.82    1.00
  YS02001890YS02001895 CONDUIT    518.38     0  02:24      0.66    0.24    1.00
  YS02001895YS02001898 CONDUIT    517.82     0  02:26      0.66    0.90    1.00
  YS02001898YS02001901 CONDUIT    517.28     0  02:24      0.66    0.33    1.00
  YS02001901YS02001904 CONDUIT    517.52     0  02:24      0.66    0.80    1.00
  YS02001904YS02001907 CONDUIT    518.91     0  02:29      0.66    0.18    1.00
  YS02001907YS02006553 CONDUIT    802.40     0  02:42      0.89    0.94    1.00
  YS02001910YS02001907 CONDUIT   1939.30     0  02:25      2.47    1.09    1.00
  YS02001915YS02001910 CONDUIT   1938.34     0  02:25      2.47    0.96    1.00
  YS02001918YS02001915 CONDUIT    648.05     0  02:25      0.83    0.36    1.00
  YS02001920YS02001918 CONDUIT    646.98     0  02:25      0.82    0.63    1.00
  YS02001923YS02001920 CONDUIT    643.26     0  02:25      0.82    0.29    1.00
  YS02001926YS02001923 CONDUIT    640.55     0  02:25      0.93    0.91    1.00
  YS02001929YS02001926 CONDUIT    639.93     0  02:25      1.05    0.30    1.00
  YS02006553YS02006556 CONDUIT    803.26     0  02:42      1.02    0.69    1.00
  YS02006556YS02006558 CONDUIT    804.16     0  02:42      1.02    0.63    1.00
  YS02006558YS02006561 CONDUIT   1167.04     0  02:24      4.13    2.58    1.00
  YS02006561YS02001783 CONDUIT   1167.73     0  02:24      2.32    0.60    1.00
  YS02163301YS02001633 CONDUIT    938.18     0  02:09      1.19    0.88    1.00
  YS02163601YS02164001 CONDUIT   1360.16     0  02:09      1.73    1.21    1.00
  YS02164001YS02001641 CONDUIT   1368.61     0  02:10      1.74    1.87    1.00
  CC-R1                PUMP       683.00     0  00:00              1.00
  CC-R2                PUMP       683.00     0  00:00              1.00
  CC-S1                PUMP       200.00     0  00:00              1.00
  CC-S2                PUMP       200.00     0  00:00              1.00
  JK-R1                PUMP      1000.00     0  00:00              1.00
  JK-R2                PUMP      1000.00     0  00:00              1.00
  JK-S                 PUMP       300.00     0  00:00              1.00
  
  
  ***************************
  Flow Classification Summary
  ***************************
  
  -------------------------------------------------------------------------------------
                      Adjusted    ---------- Fraction of Time in Flow Class ---------- 
                       /Actual         Up    Down  Sub   Sup   Up    Down  Norm  Inlet 
  Conduit               Length    Dry  Dry   Dry   Crit  Crit  Crit  Crit  Ltd   Ctrl  
  -------------------------------------------------------------------------------------
  1                       1.00   0.00  0.00  0.00  0.00  1.00  0.00  0.00  0.37  0.00
  WS02003060WS02003069    1.00   0.00  0.00  0.00  0.98  0.02  0.00  0.00  0.70  0.00
  WS02003066WSF200        1.00   0.05  0.00  0.00  0.00  0.95  0.00  0.00  0.81  0.00
  WS02003067WS02003066    1.00   0.05  0.00  0.00  0.95  0.00  0.00  0.00  0.00  0.00
  WS02003069WS02003072    1.00   0.00  0.00  0.00  0.99  0.01  0.00  0.00  0.71  0.00
  WS02003072WS02003073    1.00   0.00  0.00  0.00  0.00  0.00  0.00  1.00  0.00  0.00
  WS02004401WS02004402    1.00   0.02  0.00  0.00  0.98  0.00  0.00  0.00  0.00  0.00
  WS02004402WS02004403    1.00   0.02  0.00  0.00  0.98  0.00  0.00  0.00  0.00  0.00
  WS02004403WS02004404    1.00   0.00  0.03  0.00  0.97  0.00  0.00  0.00  0.00  0.00
  WS02004404WS02004405    1.00   0.00  0.00  0.00  1.00  0.00  0.00  0.00  0.01  0.00
  WS02004405WS02004406    1.00   0.00  0.00  0.00  1.00  0.00  0.00  0.00  0.00  0.00
  WS02004406WS02004407    1.00   0.00  0.03  0.00  0.97  0.00  0.00  0.00  0.00  0.00
  WS02004407WS02004409    1.00   0.03  0.00  0.00  0.95  0.01  0.00  0.00  0.96  0.00
  WS02004409WS02004410    1.00   0.03  0.00  0.00  0.96  0.00  0.00  0.00  0.00  0.00
  WS02004410WS02004411    1.00   0.04  0.00  0.00  0.96  0.00  0.00  0.00  0.00  0.00
  WS02004411WS02004412    1.00   0.04  0.00  0.00  0.96  0.00  0.00  0.00  0.00  0.00
  WS02004412WS02004413    1.00   0.04  0.00  0.00  0.96  0.00  0.00  0.00  0.00  0.00
  WS02004413WS02003067    1.00   0.04  0.01  0.00  0.00  0.00  0.95  0.00  0.00  0.00
  WS02006109WS02006110    1.00   0.00  0.01  0.00  0.98  0.00  0.01  0.00  0.00  0.00
  WS02006110WS02006113    1.00   0.01  0.01  0.00  0.98  0.00  0.00  0.00  0.00  0.00
  WS02006111WS02006112    1.00   0.02  0.00  0.00  0.98  0.00  0.00  0.00  0.98  0.00
  WS02006112WS02006115    1.00   0.02  0.00  0.00  0.97  0.00  0.00  0.00  0.00  0.00
  WS02006113WS02006111    1.00   0.02  0.00  0.00  0.00  0.98  0.00  0.00  0.11  0.00
  WS02006115WS02006116    1.00   0.02  0.00  0.00  0.97  0.00  0.00  0.01  0.00  0.00
  WS02006116WS02004401    1.00   0.02  0.00  0.00  0.98  0.00  0.00  0.00  0.00  0.00
  WS02006228WS02006109    1.00   0.00  0.00  0.00  1.00  0.00  0.00  0.00  0.00  0.00
  WS02006229WS02006228    1.00   0.00  0.00  0.00  0.99  0.00  0.00  0.01  0.00  0.00
  WS02006230WS02006229    1.00   0.00  0.00  0.00  0.99  0.00  0.00  0.01  0.02  0.00
  WS02006231WS02006230    1.00   0.00  0.00  0.00  0.30  0.00  0.70  0.00  0.00  0.00
  WS02006232WS02006231    1.00   0.00  0.00  0.00  0.98  0.00  0.02  0.00  0.00  0.00
  WS02006234WS02006232    1.00   0.00  0.00  0.00  1.00  0.00  0.00  0.00  0.06  0.00
  WS02006235WS02006234    1.00   0.00  0.00  0.00  0.92  0.00  0.08  0.00  0.00  0.00
  WS02006238WS02006235    1.00   0.00  0.00  0.00  0.99  0.00  0.00  0.00  0.00  0.00
  WS02006239WS02006238    1.00   0.00  0.00  0.00  1.00  0.00  0.00  0.00  0.24  0.00
  WS02006240WS02006239    1.00   0.00  0.00  0.00  0.62  0.00  0.00  0.37  0.03  0.00
  WS02006242WS02006240    1.00   0.00  0.00  0.00  1.00  0.00  0.00  0.00  0.03  0.00
  WS02006243WS02006242    1.00   0.00  0.00  0.00  0.99  0.00  0.00  0.00  0.63  0.00
  WS02006245WS02006243    1.00   0.00  0.00  0.00  0.47  0.00  0.00  0.53  0.01  0.00
  WS02006247WS02006245    1.00   0.00  0.00  0.00  0.99  0.00  0.00  0.01  0.00  0.00
  WS02006248WS02006247    1.00   0.00  0.00  0.00  0.99  0.00  0.00  0.00  0.12  0.00
  WS02006249WS02006248    1.00   0.00  0.00  0.00  0.35  0.00  0.65  0.00  0.00  0.00
  WS02006251WS02006249    1.00   0.00  0.00  0.00  0.99  0.00  0.00  0.00  0.66  0.00
  WS02006252WS02006251    1.00   0.00  0.17  0.00  0.21  0.00  0.62  0.00  0.00  0.00
  WS02006256WS02006235    1.00   0.00  0.00  0.00  0.98  0.02  0.00  0.00  0.00  0.00
  WSF200WS02003060        1.00   0.00  0.05  0.00  0.48  0.47  0.00  0.00  0.64  0.00
  YS02001580YS02001583    1.00   0.25  0.52  0.00  0.23  0.00  0.00  0.00  0.61  0.00
  YS02001583YS02001586    1.00   0.39  0.33  0.00  0.28  0.00  0.00  0.00  0.62  0.00
  YS02001586YS02001590    1.00   0.13  0.00  0.00  0.48  0.04  0.00  0.36  0.38  0.00
  YS02001590YS02001593    1.00   0.13  0.01  0.00  0.15  0.00  0.71  0.00  0.00  0.00
  YS02001593YS02001596    1.00   0.13  0.00  0.00  0.17  0.01  0.00  0.68  0.02  0.00
  YS02001596YS02001600    1.00   0.13  0.00  0.00  0.24  0.01  0.00  0.61  0.04  0.00
  YS02001600YS02001601    1.00   0.13  0.01  0.00  0.86  0.00  0.00  0.00  0.57  0.00
  YS02001601YS02001602    1.00   0.13  0.01  0.00  0.87  0.00  0.00  0.00  0.00  0.00
  YS02001602YS02001605    1.00   0.13  0.00  0.00  0.87  0.00  0.00  0.00  0.00  0.00
  YS02001605YS02001607    1.00   0.14  0.00  0.00  0.86  0.00  0.00  0.00  0.00  0.00
  YS02001607YS02001610    1.00   0.13  0.00  0.00  0.86  0.00  0.00  0.00  0.01  0.00
  YS02001610YS02001613    1.00   0.13  0.00  0.00  0.87  0.00  0.00  0.00  0.00  0.00
  YS02001613YS02001616    1.00   0.13  0.00  0.00  0.87  0.00  0.00  0.00  0.00  0.00
  YS02001616YS02001619    1.00   0.13  0.00  0.00  0.87  0.00  0.00  0.00  0.00  0.00
  YS02001619YS02001622    1.00   0.13  0.00  0.00  0.87  0.00  0.00  0.00  0.25  0.00
  YS02001622YS02001625    1.00   0.13  0.00  0.00  0.87  0.00  0.00  0.00  0.03  0.00
  YS02001625YS02001629    1.00   0.13  0.04  0.00  0.20  0.00  0.64  0.00  0.00  0.00
  YS02001629YS02163301    1.00   0.15  0.01  0.00  0.84  0.00  0.00  0.00  0.00  0.00
  YS02001633YS02163601    1.00   0.00  0.01  0.00  0.99  0.00  0.00  0.00  0.14  0.00
  YS02001641YS02001644    1.00   0.00  0.01  0.00  0.99  0.00  0.00  0.00  0.00  0.00
  YS02001644YS02001647    1.00   0.00  0.16  0.00  0.84  0.00  0.00  0.00  0.00  0.00
  YS02001647YS02001649    1.00   0.00  0.16  0.00  0.51  0.33  0.00  0.00  0.54  0.00
  YS02001649YS02001757    1.00   0.00  0.00  0.00  0.65  0.35  0.00  0.00  0.46  0.00
  YS02001652YS02001649    1.00   0.00  0.00  0.00  0.97  0.03  0.00  0.00  0.71  0.00
  YS02001655YS02001652    1.00   0.00  0.00  0.00  0.22  0.02  0.00  0.77  0.08  0.00
  YS02001658YS02001655    1.00   0.00  0.14  0.00  0.65  0.22  0.00  0.00  0.69  0.00
  YS02001661YS02001658    1.00   0.14  0.00  0.00  0.47  0.39  0.00  0.00  0.70  0.00
  YS02001664YS02001661    1.00   0.13  0.00  0.00  0.72  0.16  0.00  0.00  0.85  0.00
  YS02001745YS02001748    1.00   0.00  0.00  0.00  0.08  0.01  0.00  0.91  0.04  0.00
  YS02001748YS02001751    1.00   0.00  0.00  0.00  0.80  0.20  0.00  0.00  0.75  0.00
  YS02001751YS02001754    1.00   0.00  0.00  0.00  0.16  0.01  0.00  0.83  0.04  0.00
  YS02001754YS02001757    1.00   0.00  0.00  0.00  1.00  0.00  0.00  0.00  0.81  0.00
  YS02001757CaochengTiaoxuchi    1.00   0.00  0.00  0.00  0.76  0.24  0.00  0.00  0.72  0.00
  YS02001759YS02001757    1.00   0.00  0.00  0.00  0.99  0.01  0.00  0.00  0.58  0.00
  YS02001762YS02001759    1.00   0.00  0.00  0.00  1.00  0.00  0.00  0.00  0.05  0.00
  YS02001765YS02001762    1.00   0.00  0.00  0.00  1.00  0.00  0.00  0.00  0.69  0.00
  YS02001767YS02001765    1.00   0.00  0.00  0.00  1.00  0.00  0.00  0.00  0.00  0.00
  YS02001770YS02001767    1.00   0.00  0.00  0.00  1.00  0.00  0.00  0.00  0.00  0.00
  YS02001774YS02001770    1.00   0.00  0.13  0.00  0.72  0.00  0.15  0.00  0.02  0.00
  YS02001779YS02001774    1.00   0.00  0.00  0.00  1.00  0.00  0.00  0.00  0.75  0.00
  YS02001783YS02001784    1.00   0.00  0.17  0.00  0.83  0.00  0.00  0.00  0.54  0.00
  YS02001784YS02001785    1.00   0.00  0.00  0.00  1.00  0.00  0.00  0.00  0.16  0.00
  YS02001786YS02001788    1.00   0.00  0.00  0.00  0.79  0.21  0.00  0.00  0.00  0.00
  YS02001788YS02001790    1.00   0.00  0.00  0.00  0.21  0.79  0.00  0.00  0.77  0.00
  YS02001790YS02001791    1.00   0.00  0.00  0.00  0.01  0.99  0.00  0.00  0.16  0.00
  YS02001791YS02001793    1.00   0.00  0.00  0.00  0.00  1.00  0.00  0.00  0.01  0.00
  YS02001793JiankangQianchi    1.00   0.00  0.00  0.00  0.61  0.39  0.00  0.00  0.93  0.00
  YS02001882YS02001884    1.00   0.15  0.01  0.00  0.85  0.00  0.00  0.00  0.00  0.00
  YS02001884YS02001887    1.00   0.06  0.05  0.00  0.89  0.00  0.00  0.00  0.00  0.00
  YS02001887YS02001890    1.00   0.00  0.00  0.00  0.97  0.00  0.03  0.00  0.00  0.00
  YS02001890YS02001895    1.00   0.00  0.15  0.00  0.84  0.00  0.00  0.00  0.00  0.00
  YS02001895YS02001898    1.00   0.16  0.00  0.00  0.83  0.00  0.02  0.00  0.00  0.00
  YS02001898YS02001901    1.00   0.16  0.00  0.00  0.84  0.00  0.00  0.00  0.01  0.00
  YS02001901YS02001904    1.00   0.16  0.00  0.00  0.84  0.00  0.00  0.00  0.00  0.00
  YS02001904YS02001907    1.00   0.00  0.15  0.00  0.84  0.00  0.00  0.00  0.00  0.00
  YS02001907YS02006553    1.00   0.00  0.02  0.00  0.98  0.00  0.00  0.00  0.00  0.00
  YS02001910YS02001907    1.00   0.00  0.00  0.00  0.97  0.00  0.00  0.03  0.12  0.00
  YS02001915YS02001910    1.00   0.00  0.00  0.00  0.97  0.03  0.00  0.00  0.13  0.00
  YS02001918YS02001915    1.00   0.00  0.01  0.00  0.98  0.02  0.00  0.00  0.70  0.00
  YS02001920YS02001918    1.00   0.00  0.01  0.00  0.99  0.00  0.00  0.00  0.00  0.00
  YS02001923YS02001920    1.00   0.00  0.00  0.00  1.00  0.00  0.00  0.00  0.89  0.00
  YS02001926YS02001923    1.00   0.00  0.07  0.00  0.09  0.00  0.84  0.00  0.00  0.00
  YS02001929YS02001926    1.00   0.00  0.13  0.00  0.87  0.00  0.00  0.00  0.80  0.00
  YS02006553YS02006556    1.00   0.01  0.00  0.00  0.99  0.00  0.00  0.00  0.03  0.00
  YS02006556YS02006558    1.00   0.00  0.00  0.00  1.00  0.00  0.00  0.00  0.00  0.00
  YS02006558YS02006561    1.00   0.17  0.00  0.00  0.08  0.75  0.00  0.00  0.17  0.00
  YS02006561YS02001783    1.00   0.17  0.00  0.00  0.12  0.71  0.00  0.00  0.65  0.00
  YS02163301YS02001633    1.00   0.00  0.15  0.00  0.85  0.00  0.00  0.00  0.00  0.00
  YS02163601YS02164001    1.00   0.00  0.08  0.00  0.92  0.00  0.00  0.00  0.00  0.00
  YS02164001YS02001641    1.00   0.01  0.08  0.00  0.92  0.00  0.00  0.00  0.05  0.00
  
  
  *************************
  Conduit Surcharge Summary
  *************************
  
  ----------------------------------------------------------------------------
                                                           Hours        Hours 
                         --------- Hours Full --------   Above Full   Capacity
  Conduit                Both Ends  Upstream  Dnstream   Normal Flow   Limited
  ----------------------------------------------------------------------------
  WS02003072WS02003073        0.01      0.01      0.01      1.91         0.01
  WS02004403WS02004404        0.01      0.01      0.01      0.01         0.01
  WS02004404WS02004405        0.01      0.01      0.01      2.88         0.01
  WS02004405WS02004406        0.01      0.01      0.01      1.31         0.01
  WS02006109WS02006110        0.46      0.46      2.29      0.81         0.01
  WS02006110WS02006113        0.01      0.01      2.27      0.01         0.01
  WS02006111WS02006112        0.01      0.01      2.33      0.01         0.01
  WS02006112WS02006115        0.01      0.01      1.60      0.01         0.01
  WS02006228WS02006109        2.22      2.29      2.22      2.52         2.21
  WS02006229WS02006228        2.20      2.23      2.20      2.44         2.18
  WS02006230WS02006229        2.35      2.40      2.35      3.21         2.35
  WS02006231WS02006230        0.57      0.57      1.53      2.96         0.01
  WS02006232WS02006231        1.24      1.24      2.30      1.33         0.01
  WS02006234WS02006232        1.99      1.99      2.30      1.27         1.15
  WS02006235WS02006234        1.69      1.75      1.95      2.86         0.13
  WS02006238WS02006235        2.03      2.03      2.32      0.01         0.07
  WS02006239WS02006238        2.17      2.30      2.17      2.40         1.78
  WS02006240WS02006239        2.16      2.25      2.16      2.40         1.64
  WS02006242WS02006240        2.24      2.24      2.36      2.47         0.02
  WS02006243WS02006242        2.26      2.26      2.33      0.01         0.35
  WS02006245WS02006243        2.25      2.26      2.25      2.01         1.38
  WS02006247WS02006245        2.25      2.28      2.25      2.51         2.08
  WS02006248WS02006247        2.24      2.24      2.26      0.01         0.37
  WS02006249WS02006248        2.23      2.23      2.25      2.51         0.01
  WS02006251WS02006249        2.25      2.26      2.25      2.47         2.01
  WS02006252WS02006251        2.51      2.51      2.51      2.51         0.01
  WS02006256WS02006235        2.67      2.89      5.44      1.82         0.02
  YS02001580YS02001583        0.86      0.86      0.90      0.01         0.01
  YS02001583YS02001586        0.87      0.87      0.99      0.01         0.01
  YS02001586YS02001590        1.00      1.00      1.08      0.01         0.01
  YS02001590YS02001593        1.07      1.07      1.10      1.08         0.01
  YS02001593YS02001596        1.09      1.09      1.20      0.01         0.01
  YS02001596YS02001600        1.26      1.26      1.37      0.01         0.01
  YS02001600YS02001601        1.43      1.43      1.73      0.01         0.01
  YS02001601YS02001602        1.62      1.62      1.78      1.40         0.01
  YS02001602YS02001605        1.56      1.56      1.62      2.58         0.01
  YS02001605YS02001607        1.51      1.56      1.51      1.70         1.51
  YS02001607YS02001610        1.02      1.02      1.04      0.01         0.01
  YS02001610YS02001613        1.00      1.00      1.04      0.01         0.01
  YS02001613YS02001616        0.96      0.96      1.00      0.01         0.01
  YS02001616YS02001619        0.94      0.94      0.96      0.10         0.07
  YS02001619YS02001622        0.93      0.94      0.93      1.12         0.91
  YS02001622YS02001625        0.93      0.93      1.14      0.01         0.01
  YS02001625YS02001629        0.82      0.82      1.14      0.01         0.01
  YS02001629YS02163301        1.12      1.12      1.13      0.47         0.44
  YS02001633YS02163601        1.15      1.15      1.18      0.64         0.63
  YS02001641YS02001644        0.98      1.04      0.98      1.80         0.97
  YS02001644YS02001647        0.65      0.65      0.98      0.04         0.01
  YS02001647YS02001649        0.65      0.65      0.74      0.01         0.01
  YS02001649YS02001757        0.73      0.74      0.76      0.54         0.42
  YS02001652YS02001649        0.57      0.57      0.74      0.01         0.01
  YS02001655YS02001652        0.41      0.41      0.55      0.01         0.01
  YS02001658YS02001655        0.29      0.29      0.41      0.01         0.01
  YS02001661YS02001658        0.10      0.10      0.29      0.01         0.01
  YS02001664YS02001661        0.01      0.01      0.14      0.01         0.01
  YS02001745YS02001748        0.01      0.01      0.17      0.01         0.01
  YS02001748YS02001751        0.23      0.23      0.31      0.01         0.01
  YS02001751YS02001754        0.31      0.31      0.43      0.01         0.01
  YS02001754YS02001757        0.46      0.46      0.76      0.01         0.01
  YS02001757CaochengTiaoxuchi        0.39      0.76      0.81      0.66         0.19
  YS02001759YS02001757        0.65      0.65      0.76      0.14         0.14
  YS02001762YS02001759        0.63      0.63      0.65      0.01         0.04
  YS02001765YS02001762        0.59      0.59      0.63      0.01         0.01
  YS02001767YS02001765        0.56      0.56      0.59      0.02         0.07
  YS02001770YS02001767        0.56      0.56      0.56      0.78         0.51
  YS02001774YS02001770        0.54      0.54      0.62      0.01         0.01
  YS02001779YS02001774        0.43      0.43      0.62      0.01         0.01
  YS02001783YS02001784        0.72      0.75      0.72      0.95         0.72
  YS02001784YS02001785        0.58      0.72      0.58      1.27         0.58
  YS02001786YS02001788        0.01      0.58      0.01      1.13         0.01
  YS02001790YS02001791        0.01      0.01      0.01      0.70         0.01
  YS02001882YS02001884        0.68      0.68      0.69      0.01         0.01
  YS02001884YS02001887        0.72      0.72      0.73      0.01         0.01
  YS02001887YS02001890        0.75      0.75      0.77      0.20         0.01
  YS02001890YS02001895        0.66      0.66      0.79      0.01         0.01
  YS02001895YS02001898        0.65      0.65      0.66      0.01         0.01
  YS02001898YS02001901        0.67      0.67      0.71      0.01         0.01
  YS02001901YS02001904        0.70      0.70      0.71      0.01         0.01
  YS02001904YS02001907        0.70      0.70      1.11      0.01         0.01
  YS02001907YS02006553        1.29      1.29      1.36      0.01         0.01
  YS02001910YS02001907        0.78      0.78      1.08      0.06         0.06
  YS02001915YS02001910        0.67      0.67      0.78      0.01         0.01
  YS02001918YS02001915        0.57      0.57      0.67      0.01         0.01
  YS02001920YS02001918        0.57      0.57      0.59      0.01         0.01
  YS02001923YS02001920        0.52      0.52      0.59      0.01         0.01
  YS02001926YS02001923        0.20      0.20      0.24      0.01         0.01
  YS02001929YS02001926        0.08      0.08      0.24      0.01         0.01
  YS02006553YS02006556        0.91      0.91      1.10      0.01         0.01
  YS02006556YS02006558        1.01      1.01      1.12      0.01         0.01
  YS02006558YS02006561        0.61      0.89      0.61      1.23         0.61
  YS02006561YS02001783        0.53      0.53      0.75      0.01         0.01
  YS02163301YS02001633        1.13      1.13      1.17      0.01         0.01
  YS02163601YS02164001        1.05      1.05      1.18      0.35         0.01
  YS02164001YS02001641        1.04      1.05      1.04      0.93         0.77
  
  
  ***************
  Pumping Summary
  ***************
  
  ---------------------------------------------------------------------------------------------------------
                                                  Min       Avg       Max     Total     Power    % Time Off
                        Percent   Number of      Flow      Flow      Flow    Volume     Usage    Pump Curve
  Pump                 Utilized   Start-Ups       LPS       LPS       LPS  10^6 ltr     Kw-hr    Low   High
  ---------------------------------------------------------------------------------------------------------
  CC-R1                   30.63           2      0.00    683.00    683.00     5.963    100.74    0.0   66.7
  CC-R2                   30.63           2      0.00    683.00    683.00     5.963    100.74    0.0   66.7
  CC-S1                   31.78           2      0.00    200.00    200.00     1.811     13.26    0.0   30.5
  CC-S2                   31.78           2      0.00    200.00    200.00     1.811     13.26    0.0   30.5
  JK-R1                    5.91          77      0.00   1000.00   1000.00     1.684      5.27    0.0    0.0
  JK-R2                    5.91          77      0.00   1000.00   1000.00     1.684      5.27    0.0    0.0
  JK-S                    22.58         110      0.00    300.00    300.00     1.931     43.00    0.0    0.0
  

  Analysis begun on:  Tue Apr 22 10:17:21 2025
  Analysis ended on:  Tue Apr 22 10:17:23 2025
  Total elapsed time: 00:00:02