
  EPA STORM WATER MANAGEMENT MODEL - VERSION 5.2 (Build 5.2.4)
  PYSWMM TOOLKIT API - VERSION v1.0 (2023-11-27)
  ------------------------------------------------------------

  WARNING 04: minimum elevation drop used for Conduit WS02004404WS02004405
  WARNING 03: negative offset ignored for Link YS02001904YS02001907
  
  ****************
  Analysis Options
  ****************
  Flow Units ............... LPS
  Process Models:
    Rainfall/Runoff ........ YES
    RDII ................... NO
    Snowmelt ............... NO
    Groundwater ............ NO
    Flow Routing ........... YES
    Ponding Allowed ........ NO
    Water Quality .......... NO
  Infiltration Method ...... HORTON
  Flow Routing Method ...... DYNWAVE
  Surcharge Method ......... EXTRAN
  Starting Date ............ 08/28/2015 08:00:00
  Ending Date .............. 08/28/2015 16:00:00
  Antecedent Dry Days ...... 8.0
  Report Time Step ......... 00:01:00
  Wet Time Step ............ 00:01:00
  Dry Time Step ............ 00:01:00
  Routing Time Step ........ 30.00 sec
  Variable Time Step ....... YES
  Maximum Trials ........... 8
  Number of Threads ........ 4
  Head Tolerance ........... 0.001500 m
  
  
  **************************        Volume         Depth
  Runoff Quantity Continuity     hectare-m            mm
  **************************     ---------       -------
  Total Precipitation ......         1.639        49.421
  Evaporation Loss .........         0.000         0.000
  Infiltration Loss ........         0.096         2.883
  Surface Runoff ...........         1.511        45.555
  Final Storage ............         0.033         0.995
  Continuity Error (%) .....        -0.023
  
  
  **************************        Volume        Volume
  Flow Routing Continuity        hectare-m      10^6 ltr
  **************************     ---------     ---------
  Dry Weather Inflow .......         0.025         0.248
  Wet Weather Inflow .......         1.511        15.107
  Groundwater Inflow .......         0.000         0.000
  RDII Inflow ..............         0.000         0.000
  External Inflow ..........         0.083         0.825
  External Outflow .........         1.439        14.390
  Flooding Loss ............         0.357         3.567
  Evaporation Loss .........         0.000         0.000
  Exfiltration Loss ........         0.000         0.000
  Initial Stored Volume ....         0.243         2.431
  Final Stored Volume ......         0.075         0.751
  Continuity Error (%) .....        -0.522
  
  
  *************************
  Highest Continuity Errors
  *************************
  Node YS02001884 (5.26%)
  Node YS02001583 (-5.25%)
  Node WS02006256 (-3.83%)
  Node YS02001774 (1.44%)
  
  
  ***************************
  Time-Step Critical Elements
  ***************************
  Link WS02006238WS02006235 (29.09%)
  Link WS02004404WS02004405 (26.68%)
  Link WS02003066WSF200 (13.31%)
  Link YS02001791YS02001793 (6.04%)
  Link YS02001793JiankangQianchi (3.09%)
  
  
  ********************************
  Highest Flow Instability Indexes
  ********************************
  Link WS02006113WS02006111 (34)
  Link WS02004404WS02004405 (24)
  Link WS02006252WS02006251 (24)
  Link WS02006256WS02006235 (21)
  Link WS02004403WS02004404 (21)
  
  
  *********************************
  Most Frequent Nonconverging Nodes
  *********************************
  Node CC-1 (27.24%)
  Node CC-2 (27.24%)
  Node JK-1 (27.24%)
  Node JK-2 (27.24%)
  Node WSC (27.24%)
  
  
  *************************
  Routing Time Step Summary
  *************************
  Minimum Time Step           :     0.00 sec
  Average Time Step           :     3.07 sec
  Maximum Time Step           :     6.43 sec
  % of Time in Steady State   :     0.00
  Average Iterations per Step :     4.01
  % of Steps Not Converging   :    27.24
  Time Step Frequencies       :
     30.000 - 13.228 sec      :     0.00 %
     13.228 -  5.833 sec      :    17.06 %
      5.833 -  2.572 sec      :    32.76 %
      2.572 -  1.134 sec      :    34.36 %
      1.134 -  0.500 sec      :    15.82 %
  
  
  ***************************
  Subcatchment Runoff Summary
  ***************************
  
  ------------------------------------------------------------------------------------------------------------------------------
                            Total      Total      Total      Total     Imperv       Perv      Total       Total     Peak  Runoff
                           Precip      Runon       Evap      Infil     Runoff     Runoff     Runoff      Runoff   Runoff   Coeff
  Subcatchment                 mm         mm         mm         mm         mm         mm         mm    10^6 ltr      LPS
  ------------------------------------------------------------------------------------------------------------------------------
  sub60                     49.42       0.00       0.00       1.73      42.29       4.21      46.49        0.61   456.23   0.941
  sub61                     49.42       0.00       0.00       2.50      39.89       5.90      45.79        0.84   632.62   0.926
  sub62                     49.42       0.00       0.00       1.15      44.18       2.81      46.98        1.29   885.01   0.951
  sub63                     49.42       0.00       0.00       4.65      34.12       9.69      43.80        0.99   700.35   0.886
  sub64                     49.42       0.00       0.00       2.35      40.80       5.07      45.87        1.10   716.65   0.928
  sub65                     49.42       0.00       0.00       2.03      41.74       4.40      46.14        1.27   798.36   0.934
  sub66                     49.42       0.00       0.00       5.77      34.01       8.57      42.58        1.99  1022.54   0.861
  sub67                     49.42       0.00       0.00       1.11      44.22       2.85      47.07        0.88   694.47   0.952
  sub68                     49.42       0.00       0.00       2.08      41.31       4.85      46.16        1.27   906.21   0.934
  sub69                     49.42       0.00       0.00       1.84      41.89       5.58      47.47        1.76  1062.94   0.961
  sub70                     49.42       0.00       0.00       6.16      32.45      10.64      43.09        1.24   572.98   0.872
  sub71                     49.42       0.00       0.00       1.18      44.14       2.77      46.91        1.23   775.69   0.949
  sub72                     49.42       0.00       0.00       1.05      44.56       2.41      46.96        0.65   370.75   0.950
  
  
  ******************
  Node Depth Summary
  ******************
  
  ---------------------------------------------------------------------------------
                                 Average  Maximum  Maximum  Time of Max    Reported
                                   Depth    Depth      HGL   Occurrence   Max Depth
  Node                 Type       Meters   Meters   Meters  days hr:min      Meters
  ---------------------------------------------------------------------------------
  WS02003060           JUNCTION     0.21     0.38     5.32     0  03:05        0.38
  WS02003066           JUNCTION     0.18     0.30     5.85     0  03:04        0.30
  WS02003067           JUNCTION     0.46     0.70     6.02     0  03:04        0.70
  WS02003069           JUNCTION     0.24     0.43     5.01     0  03:03        0.43
  WS02003072           JUNCTION     0.29     0.50     4.87     0  03:04        0.50
  WS02003073           JUNCTION     0.16     0.30     4.36     0  03:05        0.30
  WS02004401           JUNCTION     0.57     0.87     6.87     0  02:59        0.87
  WS02004402           JUNCTION     0.60     0.90     6.86     0  03:00        0.90
  WS02004403           JUNCTION     0.62     0.92     6.85     0  02:57        0.92
  WS02004404           JUNCTION     0.69     1.01     6.86     0  03:02        1.00
  WS02004405           JUNCTION     0.68     0.97     6.82     0  03:02        0.97
  WS02004406           JUNCTION     0.69     0.96     6.79     0  03:02        0.96
  WS02004407           JUNCTION     0.16     0.30     6.61     0  03:00        0.30
  WS02004409           JUNCTION     0.36     0.67     6.44     0  03:03        0.67
  WS02004410           JUNCTION     0.38     0.68     6.40     0  03:03        0.68
  WS02004411           JUNCTION     0.40     0.69     6.37     0  03:03        0.69
  WS02004412           JUNCTION     0.42     0.70     6.34     0  03:04        0.70
  WS02004413           JUNCTION     0.57     0.86     6.33     0  03:04        0.86
  WS02006109           JUNCTION     0.64     1.25     7.87     0  02:03        1.25
  WS02006110           JUNCTION     0.64     1.29     7.87     0  02:39        1.14
  WS02006111           JUNCTION     0.17     0.29     6.99     0  02:51        0.29
  WS02006112           JUNCTION     0.73     1.12     7.00     0  03:13        1.08
  WS02006113           JUNCTION     0.26     0.46     7.35     0  02:25        0.46
  WS02006115           JUNCTION     0.46     0.77     6.91     0  03:01        0.77
  WS02006116           JUNCTION     0.54     0.85     6.89     0  03:02        0.85
  WS02006228           JUNCTION     0.64     1.54     8.19     0  02:03        1.54
  WS02006229           JUNCTION     0.61     1.66     8.35     0  02:03        1.66
  WS02006230           JUNCTION     0.62     1.90     8.64     0  02:03        1.90
  WS02006231           JUNCTION     0.42     2.14     9.27     0  02:28        1.59
  WS02006232           JUNCTION     0.56     1.95     8.98     0  02:28        1.69
  WS02006234           JUNCTION     0.49     1.96     9.12     0  02:13        1.96
  WS02006235           JUNCTION     0.53     2.00     9.16     0  02:13        2.00
  WS02006238           JUNCTION     0.55     2.15     9.29     0  02:13        2.15
  WS02006239           JUNCTION     0.52     2.03     9.24     0  02:13        2.03
  WS02006240           JUNCTION     0.49     2.10     9.39     0  02:13        2.10
  WS02006242           JUNCTION     0.55     1.55     8.82     0  02:05        1.55
  WS02006243           JUNCTION     0.47     1.48     8.90     0  02:13        1.48
  WS02006245           JUNCTION     0.47     1.56     9.04     0  03:13        1.56
  WS02006247           JUNCTION     0.49     1.47     8.97     0  03:13        1.47
  WS02006248           JUNCTION     0.46     1.10     8.69     0  02:02        1.10
  WS02006249           JUNCTION     0.48     1.09     8.69     0  01:59        1.09
  WS02006251           JUNCTION     0.48     1.32     8.99     0  03:10        1.29
  WS02006252           JUNCTION     0.32     1.50     9.74     0  00:00        1.11
  WS02006256           JUNCTION     1.08     2.35     9.28     0  00:00        2.35
  WSF200               JUNCTION     0.15     0.29     5.52     0  03:04        0.29
  YS02001580           JUNCTION     0.11     1.05     9.59     0  02:07        0.78
  YS02001583           JUNCTION     0.14     1.08     9.58     0  02:07        0.82
  YS02001586           JUNCTION     0.22     1.13     9.30     0  02:07        1.13
  YS02001590           JUNCTION     0.32     1.40     9.26     0  02:07        1.40
  YS02001593           JUNCTION     0.26     1.34     9.20     0  02:07        1.29
  YS02001596           JUNCTION     0.35     1.68     9.10     0  02:13        1.68
  YS02001600           JUNCTION     0.43     1.87     9.00     0  02:07        1.86
  YS02001601           JUNCTION     0.61     2.06     8.90     0  02:06        2.06
  YS02001602           JUNCTION     0.52     1.87     8.77     0  02:06        1.87
  YS02001605           JUNCTION     0.47     1.78     8.68     0  02:25        1.78
  YS02001607           JUNCTION     0.45     1.67     8.52     0  02:13        1.67
  YS02001610           JUNCTION     0.49     1.68     8.48     0  02:07        1.68
  YS02001613           JUNCTION     0.45     1.66     8.50     0  02:12        1.65
  YS02001616           JUNCTION     0.39     1.61     8.52     0  02:13        1.61
  YS02001619           JUNCTION     0.36     1.61     8.54     0  02:13        1.61
  YS02001622           JUNCTION     0.35     1.62     8.52     0  02:13        1.62
  YS02001625           JUNCTION     0.59     1.78     8.38     0  02:09        1.78
  YS02001629           JUNCTION     0.47     1.85     8.40     0  02:11        1.85
  YS02001633           JUNCTION     0.54     2.08     8.53     0  02:13        2.08
  YS02001641           JUNCTION     0.51     1.99     8.43     0  02:13        1.99
  YS02001644           JUNCTION     0.50     1.92     8.35     0  02:11        1.92
  YS02001647           JUNCTION     0.28     1.81     8.42     0  02:12        1.71
  YS02001649           JUNCTION     0.31     2.05     8.44     0  02:12        1.86
  YS02001652           JUNCTION     0.21     2.03     8.62     0  02:12        1.66
  YS02001655           JUNCTION     0.14     2.08     8.93     0  02:12        1.42
  YS02001658           JUNCTION     0.11     2.12     9.26     0  02:12        1.23
  YS02001661           JUNCTION     0.14     1.46     8.87     0  02:12        1.15
  YS02001664           JUNCTION     0.06     0.68     8.60     0  02:13        0.68
  YS02001745           JUNCTION     0.06     0.97     8.49     0  02:12        0.76
  YS02001748           JUNCTION     0.09     2.23     9.31     0  02:12        1.18
  YS02001751           JUNCTION     0.11     2.08     8.95     0  02:12        1.26
  YS02001754           JUNCTION     0.16     2.20     8.81     0  02:12        1.53
  YS02001757           JUNCTION     0.31     2.21     8.47     0  02:12        1.88
  YS02001759           JUNCTION     0.26     2.19     8.56     0  02:12        1.89
  YS02001762           JUNCTION     0.25     2.15     8.55     0  02:12        1.88
  YS02001765           JUNCTION     0.23     2.10     8.55     0  02:12        1.86
  YS02001767           JUNCTION     0.23     2.03     8.52     0  02:12        1.87
  YS02001770           JUNCTION     0.24     1.95     8.44     0  02:11        1.91
  YS02001774           JUNCTION     0.30     2.05     8.47     0  02:11        1.98
  YS02001779           JUNCTION     0.15     1.68     8.37     0  02:10        1.68
  YS02001783           JUNCTION     0.27     1.51     7.65     0  02:10        1.51
  YS02001784           JUNCTION     0.28     1.29     7.35     0  02:10        1.29
  YS02001786           JUNCTION     0.24     0.97     7.00     0  02:10        0.87
  YS02001788           JUNCTION     0.17     0.62     6.60     0  02:13        0.62
  YS02001790           JUNCTION     0.20     0.73     6.37     0  02:12        0.72
  YS02001791           JUNCTION     0.13     0.44     5.91     0  02:12        0.44
  YS02001793           JUNCTION     0.07     0.25     5.08     0  02:11        0.23
  YS02001882           JUNCTION     0.34     1.83     8.55     0  02:08        1.73
  YS02001884           JUNCTION     0.42     1.93     8.55     0  02:08        1.84
  YS02001887           JUNCTION     0.49     1.94     8.48     0  02:13        1.94
  YS02001890           JUNCTION     0.52     1.81     8.32     0  02:08        1.81
  YS02001895           JUNCTION     0.31     1.58     8.33     0  02:08        1.56
  YS02001898           JUNCTION     0.31     1.59     8.32     0  02:13        1.59
  YS02001901           JUNCTION     0.42     1.72     8.33     0  02:09        1.70
  YS02001904           JUNCTION     0.40     1.68     8.31     0  02:09        1.65
  YS02001907           JUNCTION     0.70     1.96     8.25     0  02:09        1.96
  YS02001910           JUNCTION     0.51     2.02     8.52     0  02:13        2.02
  YS02001915           JUNCTION     0.34     2.00     8.72     0  02:13        2.00
  YS02001918           JUNCTION     0.19     1.81     8.88     0  02:10        1.57
  YS02001920           JUNCTION     0.27     2.12     9.13     0  02:10        1.52
  YS02001923           JUNCTION     0.15     2.03     9.29     0  02:10        1.35
  YS02001926           JUNCTION     0.18     1.90     9.35     0  02:10        1.21
  YS02001929           JUNCTION     0.10     1.78     9.47     0  02:10        1.02
  YS02006553           JUNCTION     0.70     2.02     8.30     0  02:13        2.02
  YS02006556           JUNCTION     0.67     2.09     8.40     0  02:13        2.09
  YS02006558           JUNCTION     0.72     2.20     8.46     0  02:13        2.20
  YS02006561           JUNCTION     0.17     1.17     7.83     0  02:10        1.17
  YS02163301           JUNCTION     0.49     1.93     8.45     0  02:11        1.93
  YS02163601           JUNCTION     0.57     2.08     8.48     0  02:11        2.08
  YS02164001           JUNCTION     0.50     2.00     8.45     0  02:11        1.93
  CC-1                 OUTFALL      0.00     0.00     0.00     0  00:00        0.00
  CC-2                 OUTFALL      0.00     0.00     0.00     0  00:00        0.00
  JK-1                 OUTFALL      0.00     0.00     0.00     0  00:00        0.00
  JK-2                 OUTFALL      0.00     0.00     0.00     0  00:00        0.00
  WSC                  OUTFALL      0.16     0.30     0.97     0  03:05        0.30
  CC-storage           STORAGE      0.30     0.87     6.37     0  02:36        0.87
  JK-storage           STORAGE      0.19     2.99     3.79     0  00:00        0.68
  
  
  *******************
  Node Inflow Summary
  *******************
  
  -------------------------------------------------------------------------------------------------
                                  Maximum  Maximum                  Lateral       Total        Flow
                                  Lateral    Total  Time of Max      Inflow      Inflow     Balance
                                   Inflow   Inflow   Occurrence      Volume      Volume       Error
  Node                 Type           LPS      LPS  days hr:min    10^6 ltr    10^6 ltr     Percent
  -------------------------------------------------------------------------------------------------
  WS02003060           JUNCTION     16.53   553.48     0  03:05       0.471        4.46       0.045
  WS02003066           JUNCTION      0.00   536.83     0  03:04           0        3.99       0.037
  WS02003067           JUNCTION      0.00   536.81     0  03:04           0        3.99       0.102
  WS02003069           JUNCTION      0.32   553.59     0  03:05     0.00912        4.46       0.087
  WS02003072           JUNCTION      0.00   553.47     0  03:03           0        4.46       0.160
  WS02003073           JUNCTION      1.82   555.26     0  03:04      0.0519        4.51       0.123
  WS02004401           JUNCTION      0.00   542.29     0  03:04           0        4.09       0.251
  WS02004402           JUNCTION      0.00   542.78     0  03:04           0        4.08       0.255
  WS02004403           JUNCTION      0.00   541.22     0  03:04           0        4.07       0.248
  WS02004404           JUNCTION      0.16   551.66     0  02:56     0.00462        4.06       0.181
  WS02004405           JUNCTION      0.04   602.26     0  03:02     0.00109        4.06       0.250
  WS02004406           JUNCTION      0.00   541.78     0  03:01           0        4.05       0.516
  WS02004407           JUNCTION      0.00   538.11     0  03:02           0        4.03       0.023
  WS02004409           JUNCTION      0.00   537.66     0  03:00           0        4.03       0.062
  WS02004410           JUNCTION      0.00   537.28     0  03:03           0        4.02       0.108
  WS02004411           JUNCTION      0.00   537.11     0  03:03           0        4.02       0.137
  WS02004412           JUNCTION      0.00   537.07     0  03:03           0        4.01       0.182
  WS02004413           JUNCTION      0.00   537.06     0  03:04           0        4.01       0.339
  WS02006109           JUNCTION      1.23   573.39     0  02:13      0.0351        4.14       0.193
  WS02006110           JUNCTION      0.00   575.42     0  02:13           0        4.13       0.162
  WS02006111           JUNCTION      0.00   562.00     0  02:25           0        4.12       0.022
  WS02006112           JUNCTION      0.00   542.88     0  02:51           0        4.12       0.500
  WS02006113           JUNCTION      0.00   574.60     0  02:13           0        4.12       0.050
  WS02006115           JUNCTION      0.00   547.12     0  02:25           0         4.1       0.171
  WS02006116           JUNCTION      0.00   538.72     0  02:58           0        4.09       0.043
  WS02006228           JUNCTION      0.00   568.92     0  02:13           0         4.1       0.058
  WS02006229           JUNCTION      0.00   566.47     0  02:03           0        4.11       0.163
  WS02006230           JUNCTION     10.28   596.93     0  02:48       0.293        4.11       0.041
  WS02006231           JUNCTION      0.00   583.44     0  03:12           0        3.82      -0.089
  WS02006232           JUNCTION      0.00   582.74     0  03:12           0        3.83       0.405
  WS02006234           JUNCTION      0.00   579.04     0  01:57           0        3.81      -0.544
  WS02006235           JUNCTION      0.00   614.99     0  01:57           0        3.97       0.457
  WS02006238           JUNCTION      0.00   424.23     0  03:06           0        2.94      -0.128
  WS02006239           JUNCTION      0.00   423.99     0  04:30           0        2.85      -0.146
  WS02006240           JUNCTION      0.00   423.46     0  04:30           0        2.78       0.006
  WS02006242           JUNCTION      0.00   422.84     0  04:30           0        2.75      -0.005
  WS02006243           JUNCTION      0.00   422.29     0  04:29           0        2.72      -0.205
  WS02006245           JUNCTION      0.00   423.87     0  04:29           0        2.72       0.447
  WS02006247           JUNCTION      0.00   423.45     0  04:30           0        2.72      -0.030
  WS02006248           JUNCTION      0.00   424.77     0  04:29           0        2.73       0.158
  WS02006249           JUNCTION      0.00   468.09     0  01:54           0        2.94       0.361
  WS02006251           JUNCTION      0.08   408.55     0  03:10     0.00219        2.94      -0.042
  WS02006252           JUNCTION      0.00   400.00     0  00:00           0        2.94      -0.032
  WS02006256           JUNCTION      0.00   324.89     0  02:14           0        1.58      -3.686
  WSF200               JUNCTION      0.00   536.87     0  03:04           0        3.99       0.009
  YS02001580           JUNCTION      0.00   130.22     0  02:07           0     0.00423      -1.374
  YS02001583           JUNCTION      0.00   171.61     0  02:07           0      0.0151      -4.992
  YS02001586           JUNCTION    572.98   572.98     0  02:15        1.24        1.26       0.107
  YS02001590           JUNCTION      0.00   317.86     0  02:13           0        1.08      -0.039
  YS02001593           JUNCTION      0.00   318.01     0  02:21           0        1.08       0.020
  YS02001596           JUNCTION      0.00   318.04     0  02:25           0        1.08       0.001
  YS02001600           JUNCTION      0.00   317.99     0  02:13           0        1.08       0.023
  YS02001601           JUNCTION   1062.94  1380.33     0  02:14        1.76        2.84       0.037
  YS02001602           JUNCTION      0.00   521.23     0  02:06           0        1.96       0.023
  YS02001605           JUNCTION      0.00   521.25     0  02:06           0        1.89       0.028
  YS02001607           JUNCTION      0.00   520.90     0  02:06           0        1.89       0.105
  YS02001610           JUNCTION      0.00   523.11     0  02:06           0        1.94       0.128
  YS02001613           JUNCTION      0.00   524.92     0  02:06           0        1.67       0.101
  YS02001616           JUNCTION      0.00   528.78     0  02:06           0        1.67       0.032
  YS02001619           JUNCTION   1022.54  1022.54     0  02:15        1.99         3.6       0.001
  YS02001622           JUNCTION      0.00   944.64     0  02:28           0        3.54       0.004
  YS02001625           JUNCTION      0.00  1100.34     0  02:15           0        3.59       0.254
  YS02001629           JUNCTION      0.00   944.99     0  02:28           0        3.13       0.031
  YS02001633           JUNCTION    798.56  1404.78     0  02:09        1.28        4.33       0.083
  YS02001641           JUNCTION      0.00  1404.31     0  02:09           0        4.27       0.069
  YS02001644           JUNCTION    716.69  1845.12     0  02:09         1.1        5.37       0.062
  YS02001647           JUNCTION      0.00  1845.03     0  02:09           0        5.27       0.009
  YS02001649           JUNCTION      0.00  2146.02     0  02:10           0        6.27       0.006
  YS02001652           JUNCTION      0.00   865.73     0  02:13           0       0.999      -0.074
  YS02001655           JUNCTION      0.15   865.05     0  02:13     0.00439       0.999       0.032
  YS02001658           JUNCTION      0.00   863.90     0  02:13           0       0.994      -0.042
  YS02001661           JUNCTION      0.00   828.80     0  02:13           0       0.994       0.005
  YS02001664           JUNCTION    700.35   700.35     0  02:14       0.994       0.994      -0.011
  YS02001745           JUNCTION    456.23   507.98     0  02:12       0.611       0.611       0.159
  YS02001748           JUNCTION      0.04   620.31     0  02:13     0.00128       0.612      -0.234
  YS02001751           JUNCTION      0.01   610.20     0  02:13    0.000313       0.619       0.108
  YS02001754           JUNCTION      0.26   602.65     0  02:13     0.00741       0.632      -0.180
  YS02001757           JUNCTION      0.00  3456.42     0  02:13           0        9.02       0.047
  YS02001759           JUNCTION    632.66  1404.04     0  02:12       0.841        2.12       0.001
  YS02001762           JUNCTION      0.00   811.73     0  02:12           0        1.28       0.003
  YS02001765           JUNCTION      0.00   813.80     0  02:12           0        1.28      -0.003
  YS02001767           JUNCTION      0.54   815.39     0  02:12      0.0152        1.28       0.033
  YS02001770           JUNCTION    885.17   885.17     0  02:14        1.29        1.33      -0.012
  YS02001774           JUNCTION      0.00   312.87     0  02:10           0      0.0824       1.464
  YS02001779           JUNCTION      0.01   314.85     0  02:10    0.000142      0.0412      -2.310
  YS02001783           JUNCTION      0.00  1164.72     0  02:13           0        3.32       0.009
  YS02001784           JUNCTION      1.06  1165.18     0  02:13      0.0302        3.35       0.016
  YS02001786           JUNCTION      0.06  1166.05     0  02:13      0.0016        3.35       0.020
  YS02001788           JUNCTION      0.07  1166.95     0  02:13     0.00202        3.35       0.008
  YS02001790           JUNCTION      0.15  1169.45     0  02:12     0.00442        3.35       0.014
  YS02001791           JUNCTION      0.00  1295.68     0  02:13           0        3.35      -0.014
  YS02001793           JUNCTION      0.00  1252.55     0  02:11           0        3.35      -0.013
  YS02001882           JUNCTION      0.00    61.01     0  02:08           0      0.0123       4.643
  YS02001884           JUNCTION      0.00    79.55     0  02:08           0      0.0479       5.548
  YS02001887           JUNCTION    694.92   706.71     0  02:13       0.888       0.921       0.473
  YS02001890           JUNCTION      0.00   708.03     0  02:13           0       0.881       0.581
  YS02001895           JUNCTION      0.00   517.88     0  02:14           0       0.836       0.178
  YS02001898           JUNCTION      0.00   518.35     0  02:15           0       0.835       0.020
  YS02001901           JUNCTION      0.00   518.31     0  02:15           0       0.837       0.385
  YS02001904           JUNCTION      0.00   517.87     0  02:15           0       0.841       0.340
  YS02001907           JUNCTION      0.00  1704.98     0  02:14           0        2.79       0.651
  YS02001910           JUNCTION      0.00  1188.06     0  02:14           0        1.95       0.366
  YS02001915           JUNCTION    775.71  1187.94     0  02:14        1.23        1.99       0.073
  YS02001918           JUNCTION      0.00   436.12     0  02:11           0       0.798       0.000
  YS02001920           JUNCTION      2.87   435.50     0  02:11      0.0818        0.78       0.106
  YS02001923           JUNCTION      0.04   446.20     0  02:10     0.00107       0.684      -0.104
  YS02001926           JUNCTION      0.05   611.28     0  02:10     0.00149       0.662      -0.135
  YS02001929           JUNCTION    370.75   455.93     0  02:10       0.646       0.648      -0.026
  YS02006553           JUNCTION      0.00   797.96     0  02:26           0        2.07       0.575
  YS02006556           JUNCTION      0.00   797.81     0  02:26           0        2.07       0.393
  YS02006558           JUNCTION    907.09  1171.07     0  02:09        1.29        3.35       0.096
  YS02006561           JUNCTION      0.00  1169.77     0  02:09           0        3.32       0.002
  YS02163301           JUNCTION      0.00   947.33     0  02:28           0        3.12       0.055
  YS02163601           JUNCTION      0.11  1404.85     0  02:09     0.00313        4.27       0.120
  YS02164001           JUNCTION      0.00  1405.40     0  02:09           0        4.27       0.058
  CC-1                 OUTFALL       0.00   683.00     0  00:00           0        3.97       0.000
  CC-2                 OUTFALL       0.00   683.00     0  00:00           0        3.97       0.000
  JK-1                 OUTFALL       0.00  1000.00     0  00:00           0       0.977       0.000
  JK-2                 OUTFALL       0.00  1000.00     0  00:00           0       0.977       0.000
  WSC                  OUTFALL       0.00   555.19     0  03:05           0         4.5       0.000
  CC-storage           STORAGE       0.00  3462.48     0  02:13           0        11.2      -0.376
  JK-storage           STORAGE       0.00  1381.76     0  02:11           0         3.5      -0.681
  
  
  **********************
  Node Surcharge Summary
  **********************
  
  Surcharging occurs when water rises above the top of the highest conduit.
  ---------------------------------------------------------------------
                                               Max. Height   Min. Depth
                                   Hours       Above Crown    Below Rim
  Node                 Type      Surcharged         Meters       Meters
  ---------------------------------------------------------------------
  WS02004404           JUNCTION        0.01          0.009        2.771
  WS02006109           JUNCTION        1.55          0.431        1.389
  WS02006110           JUNCTION        0.43          0.379        1.471
  WS02006112           JUNCTION        1.12          0.119        1.561
  WS02006228           JUNCTION        1.53          0.707        1.493
  WS02006229           JUNCTION        1.58          0.859        1.591
  WS02006230           JUNCTION        0.49          0.817        0.753
  WS02006231           JUNCTION        0.90          1.434        0.096
  WS02006232           JUNCTION        1.69          1.246        0.234
  WS02006234           JUNCTION        1.14          1.240        0.000
  WS02006235           JUNCTION        1.43          1.290        0.000
  WS02006238           JUNCTION        1.59          1.430        0.000
  WS02006239           JUNCTION        1.54          1.290        0.000
  WS02006240           JUNCTION        1.58          1.390        0.000
  WS02006242           JUNCTION        1.72          0.820        0.000
  WS02006243           JUNCTION        1.61          0.770        0.000
  WS02006245           JUNCTION        1.61          0.850        0.000
  WS02006247           JUNCTION        1.64          0.760        0.000
  WS02006248           JUNCTION        1.59          0.380        0.000
  WS02006249           JUNCTION        1.61          0.390        0.000
  WS02006251           JUNCTION        1.16          0.289        0.891
  WS02006252           JUNCTION        2.04          1.100        0.000
  WS02006256           JUNCTION        5.46          2.050        0.000
  YS02001580           JUNCTION        0.44          0.450        0.000
  YS02001583           JUNCTION        0.45          0.440        0.060
  YS02001586           JUNCTION        0.54          0.510        0.000
  YS02001590           JUNCTION        0.61          0.750        0.000
  YS02001593           JUNCTION        0.61          0.721        0.119
  YS02001596           JUNCTION        0.70          0.953        0.117
  YS02001600           JUNCTION        0.84          1.190        0.000
  YS02001601           JUNCTION        1.18          1.440        0.000
  YS02001602           JUNCTION        1.07          1.270        0.000
  YS02001605           JUNCTION        1.02          1.180        0.000
  YS02001607           JUNCTION        0.54          0.669        0.011
  YS02001610           JUNCTION        0.57          0.680        0.000
  YS02001613           JUNCTION        0.53          0.661        0.039
  YS02001616           JUNCTION        0.49          0.610        0.000
  YS02001619           JUNCTION        0.48          0.610        0.000
  YS02001622           JUNCTION        0.47          0.620        0.000
  YS02001625           JUNCTION        0.65          0.780        0.000
  YS02001629           JUNCTION        0.39          0.470        0.000
  YS02001633           JUNCTION        0.66          1.060        0.000
  YS02001641           JUNCTION        0.55          0.989        0.111
  YS02001644           JUNCTION        0.49          0.920        0.000
  YS02001647           JUNCTION        0.29          0.813        0.087
  YS02001649           JUNCTION        0.32          1.050        0.000
  YS02001652           JUNCTION        0.22          0.998        0.132
  YS02001655           JUNCTION        0.16          1.078        0.122
  YS02001658           JUNCTION        0.09          1.116        0.184
  YS02001661           JUNCTION        0.01          0.393        0.997
  YS02001748           JUNCTION        0.02          1.155        0.035
  YS02001751           JUNCTION        0.11          1.075        0.125
  YS02001754           JUNCTION        0.15          1.150        0.000
  YS02001757           JUNCTION        0.30          1.210        0.000
  YS02001759           JUNCTION        0.26          1.195        0.015
  YS02001762           JUNCTION        0.25          1.150        0.000
  YS02001765           JUNCTION        0.23          1.100        0.000
  YS02001767           JUNCTION        0.22          1.030        0.000
  YS02001770           JUNCTION        0.21          0.920        0.000
  YS02001774           JUNCTION        0.25          1.050        0.000
  YS02001779           JUNCTION        0.18          0.680        0.000
  YS02001783           JUNCTION        0.42          0.712        0.888
  YS02001784           JUNCTION        0.40          0.487        1.003
  YS02001786           JUNCTION        0.30          0.170        1.260
  YS02001882           JUNCTION        0.37          0.830        0.000
  YS02001884           JUNCTION        0.38          0.870        0.000
  YS02001887           JUNCTION        0.41          0.893        0.057
  YS02001890           JUNCTION        0.42          0.760        0.000
  YS02001895           JUNCTION        0.36          0.579        0.171
  YS02001898           JUNCTION        0.35          0.560        0.180
  YS02001901           JUNCTION        0.40          0.718        0.152
  YS02001904           JUNCTION        0.39          0.683        0.167
  YS02001907           JUNCTION        0.61          0.950        0.000
  YS02001910           JUNCTION        0.44          1.018        0.082
  YS02001915           JUNCTION        0.37          1.000        0.000
  YS02001918           JUNCTION        0.30          0.810        0.000
  YS02001920           JUNCTION        0.31          1.121        0.019
  YS02001923           JUNCTION        0.02          0.820        0.000
  YS02001926           JUNCTION        0.04          0.900        0.000
  YS02001929           JUNCTION        0.01          0.780        0.000
  YS02006553           JUNCTION        0.62          1.018        0.172
  YS02006556           JUNCTION        0.53          1.051        0.299
  YS02006558           JUNCTION        0.52          1.096        0.304
  YS02006561           JUNCTION        0.26          0.374        0.776
  YS02163301           JUNCTION        0.64          0.933        0.097
  YS02163601           JUNCTION        0.68          1.080        0.000
  YS02164001           JUNCTION        0.57          0.996        0.104
  
  
  *********************
  Node Flooding Summary
  *********************
  
  Flooding refers to all water that overflows a node, whether it ponds or not.
  --------------------------------------------------------------------------
                                                             Total   Maximum
                                 Maximum   Time of Max       Flood    Ponded
                        Hours       Rate    Occurrence      Volume     Depth
  Node                 Flooded       LPS   days hr:min    10^6 ltr    Meters
  --------------------------------------------------------------------------
  WS02006234              0.01    149.41      0  02:38       0.000     0.000
  WS02006235              0.01     38.58      0  02:16       0.000     0.000
  WS02006238              0.01      2.85      0  02:13       0.000     0.000
  WS02006239              0.01      5.44      0  02:38       0.000     0.000
  WS02006240              0.01      1.16      0  02:13       0.000     0.000
  WS02006242              0.02     37.80      0  02:16       0.001     0.000
  WS02006243              0.01      3.29      0  02:16       0.000     0.000
  WS02006245              0.01      0.66      0  03:15       0.000     0.000
  WS02006247              0.01      0.62      0  03:15       0.000     0.000
  WS02006248              0.14     30.89      0  02:16       0.007     0.000
  WS02006249              1.06     88.55      0  01:59       0.195     0.000
  WS02006252              0.01    245.63      0  00:00       0.000     0.000
  WS02006256              1.46    314.28      0  02:14       0.524     0.000
  YS02001580              0.01    106.59      0  02:07       0.000     0.000
  YS02001586              0.34    255.57      0  02:15       0.165     0.000
  YS02001590              0.01      7.01      0  02:07       0.000     0.000
  YS02001600              0.01      1.22      0  02:07       0.000     0.000
  YS02001601              0.47    982.48      0  02:14       0.878     0.000
  YS02001602              0.33     61.94      0  02:12       0.066     0.000
  YS02001605              0.01      0.07      0  02:25       0.000     0.000
  YS02001610              0.29    497.16      0  02:15       0.326     0.000
  YS02001616              0.01      0.75      0  02:13       0.000     0.000
  YS02001619              0.01      1.21      0  02:13       0.000     0.000
  YS02001622              0.01      0.29      0  02:13       0.000     0.000
  YS02001625              0.24   1099.83      0  02:15       0.507     0.000
  YS02001629              0.07    189.22      0  02:13       0.028     0.000
  YS02001633              0.01      0.75      0  02:13       0.000     0.000
  YS02001644              0.08    608.78      0  02:13       0.090     0.000
  YS02001649              0.01     36.90      0  02:12       0.000     0.000
  YS02001754              0.01     67.31      0  02:12       0.000     0.000
  YS02001757              0.01     36.05      0  02:12       0.000     0.000
  YS02001762              0.01     14.02      0  02:13       0.000     0.000
  YS02001765              0.01     15.37      0  02:13       0.000     0.000
  YS02001767              0.01      8.11      0  02:13       0.000     0.000
  YS02001770              0.01     43.44      0  02:13       0.000     0.000
  YS02001774              0.01     15.13      0  02:11       0.000     0.000
  YS02001779              0.06    245.24      0  02:10       0.026     0.000
  YS02001882              0.01     12.52      0  02:08       0.000     0.000
  YS02001884              0.01      7.99      0  02:08       0.000     0.000
  YS02001890              0.11    198.09      0  02:13       0.039     0.000
  YS02001907              0.25   1442.03      0  02:14       0.709     0.000
  YS02001915              0.01      0.12      0  02:13       0.000     0.000
  YS02001918              0.01    198.65      0  02:10       0.002     0.000
  YS02001923              0.01    424.54      0  02:10       0.002     0.000
  YS02001926              0.01    344.16      0  02:10       0.001     0.000
  YS02001929              0.01    155.72      0  02:10       0.000     0.000
  YS02163601              0.01      1.83      0  02:11       0.000     0.000
  
  
  **********************
  Storage Volume Summary
  **********************
  
  ------------------------------------------------------------------------------------------------
                         Average    Avg   Evap  Exfil     Maximum    Max    Time of Max    Maximum
                          Volume   Pcnt   Pcnt   Pcnt      Volume   Pcnt     Occurrence    Outflow
  Storage Unit           1000 m³   Full   Loss   Loss     1000 m³   Full    days hr:min        LPS
  ------------------------------------------------------------------------------------------------
  CC-storage               0.838   13.1    0.0    0.0       2.419   37.7       0  02:36    1783.53
  JK-storage               0.009    3.2    0.0    0.0       0.150   51.6       0  00:00    2300.00
  
  
  ***********************
  Outfall Loading Summary
  ***********************
  
  -----------------------------------------------------------
                         Flow       Avg       Max       Total
                         Freq      Flow      Flow      Volume
  Outfall Node           Pcnt       LPS       LPS    10^6 ltr
  -----------------------------------------------------------
  CC-1                  38.63    683.00    683.00       3.968
  CC-2                  38.63    683.00    683.00       3.968
  JK-1                   6.56   1000.00   1000.00       0.977
  JK-2                   6.56   1000.00   1000.00       0.977
  WSC                   99.94    223.35    555.19       4.500
  -----------------------------------------------------------
  System                38.06   3589.35   3905.54      14.390
  
  
  ********************
  Link Flow Summary
  ********************
  
  -----------------------------------------------------------------------------
                                 Maximum  Time of Max   Maximum    Max/    Max/
                                  |Flow|   Occurrence   |Veloc|    Full    Full
  Link                 Type          LPS  days hr:min     m/sec    Flow   Depth
  -----------------------------------------------------------------------------
  1                    CONDUIT    555.19     0  03:05      2.83    0.19    0.30
  WS02003060WS02003069 CONDUIT    553.27     0  03:05      1.64    0.22    0.34
  WS02003066WSF200     CONDUIT    536.87     0  03:04      2.85    0.09    0.22
  WS02003067WS02003066 CONDUIT    536.83     0  03:04      1.21    0.17    0.42
  WS02003069WS02003072 CONDUIT    553.47     0  03:03      1.37    0.27    0.39
  WS02003072WS02003073 CONDUIT    553.43     0  03:04      1.44    1.20    0.37
  WS02004401WS02004402 CONDUIT    542.78     0  03:04      1.22    0.65    0.89
  WS02004402WS02004403 CONDUIT    541.22     0  03:04      1.24    0.78    0.91
  WS02004403WS02004404 CONDUIT    551.50     0  02:56      1.24    0.40    0.96
  WS02004404WS02004405 CONDUIT    602.22     0  03:02      1.45    5.90    0.98
  WS02004405WS02004406 CONDUIT    541.78     0  03:01      1.46    1.07    0.96
  WS02004406WS02004407 CONDUIT    538.11     0  03:02      1.04    0.24    0.63
  WS02004407WS02004409 CONDUIT    537.66     0  03:00      1.59    0.19    0.48
  WS02004409WS02004410 CONDUIT    537.28     0  03:03      1.06    0.69    0.67
  WS02004410WS02004411 CONDUIT    537.11     0  03:03      1.13    0.73    0.69
  WS02004411WS02004412 CONDUIT    537.07     0  03:03      1.20    0.76    0.69
  WS02004412WS02004413 CONDUIT    537.06     0  03:04      1.22    0.36    0.78
  WS02004413WS02003067 CONDUIT    536.81     0  03:04      1.11    0.23    0.59
  WS02006109WS02006110 CONDUIT    575.42     0  02:13      1.15    1.11    1.00
  WS02006110WS02006113 CONDUIT    574.60     0  02:13      1.37    0.52    0.79
  WS02006111WS02006112 CONDUIT    542.88     0  02:51      1.95    0.26    0.67
  WS02006112WS02006115 CONDUIT    547.12     0  02:25      0.85    0.32    0.88
  WS02006113WS02006111 CONDUIT    562.00     0  02:25      2.47    0.67    0.46
  WS02006115WS02006116 CONDUIT    538.72     0  02:58      1.29    0.69    0.78
  WS02006116WS02004401 CONDUIT    542.29     0  03:04      1.21    0.75    0.86
  WS02006228WS02006109 CONDUIT    572.16     0  02:13      1.14    2.50    1.00
  WS02006229WS02006228 CONDUIT    568.92     0  02:13      1.13    1.88    1.00
  WS02006230WS02006229 CONDUIT    566.47     0  02:03      1.47   12.61    1.00
  WS02006231WS02006230 CONDUIT    586.65     0  02:48      1.60    8.90    1.00
  WS02006232WS02006231 CONDUIT    583.44     0  03:12      1.52    1.22    1.00
  WS02006234WS02006232 CONDUIT    582.74     0  03:12      1.51    1.18    1.00
  WS02006235WS02006234 CONDUIT    579.04     0  01:57      1.58    6.11    1.00
  WS02006238WS02006235 CONDUIT    425.63     0  02:45      1.45    0.95    1.00
  WS02006239WS02006238 CONDUIT    424.23     0  03:06      1.11    1.36    1.00
  WS02006240WS02006239 CONDUIT    423.99     0  04:30      1.27    1.33    1.00
  WS02006242WS02006240 CONDUIT    423.46     0  04:30      1.16    1.68    1.00
  WS02006243WS02006242 CONDUIT    422.84     0  04:30      1.40    0.90    1.00
  WS02006245WS02006243 CONDUIT    422.29     0  04:29      1.44    1.25    1.00
  WS02006247WS02006245 CONDUIT    423.87     0  04:29      1.43    3.36    1.00
  WS02006248WS02006247 CONDUIT    423.45     0  04:30      1.42    0.92    1.00
  WS02006249WS02006248 CONDUIT    424.77     0  04:29      1.37    2.33    1.00
  WS02006251WS02006249 CONDUIT    468.09     0  01:54      1.99    1.35    1.00
  WS02006252WS02006251 CONDUIT    408.47     0  03:10      4.89    1.50    1.00
  WS02006256WS02006235 CONDUIT    288.91     0  00:00      4.23    3.06    1.00
  WSF200WS02003060     CONDUIT    536.96     0  03:05      2.06    0.12    0.28
  YS02001580YS02001583 CONDUIT    130.22     0  02:07      0.68    0.50    1.00
  YS02001583YS02001586 CONDUIT    166.13     0  02:07      0.71    0.25    1.00
  YS02001586YS02001590 CONDUIT    317.86     0  02:13      1.26    0.56    1.00
  YS02001590YS02001593 CONDUIT    318.01     0  02:21      1.12    2.00    1.00
  YS02001593YS02001596 CONDUIT    318.04     0  02:25      1.75    0.50    1.00
  YS02001596YS02001600 CONDUIT    317.99     0  02:13      1.23    0.62    1.00
  YS02001600YS02001601 CONDUIT    318.14     0  02:13      1.13    0.55    1.00
  YS02001601YS02001602 CONDUIT    521.23     0  02:06      1.84    1.88    1.00
  YS02001602YS02001605 CONDUIT    521.25     0  02:06      1.84   11.03    1.00
  YS02001605YS02001607 CONDUIT    520.90     0  02:06      1.84    2.86    1.00
  YS02001607YS02001610 CONDUIT    523.11     0  02:06      0.67    0.50    1.00
  YS02001610YS02001613 CONDUIT    524.92     0  02:06      0.67    0.61    1.00
  YS02001613YS02001616 CONDUIT    528.78     0  02:06      0.68    0.45    1.00
  YS02001616YS02001619 CONDUIT    512.84     0  02:35      0.68    0.89    1.00
  YS02001619YS02001622 CONDUIT    944.64     0  02:28      1.20    1.39    1.00
  YS02001622YS02001625 CONDUIT    944.64     0  02:28      1.20    0.50    1.00
  YS02001625YS02001629 CONDUIT    944.99     0  02:28      1.20    0.45    1.00
  YS02001629YS02163301 CONDUIT    947.33     0  02:28      1.21    1.17    1.00
  YS02001633YS02163601 CONDUIT   1404.74     0  02:09      1.79    1.47    1.00
  YS02001641YS02001644 CONDUIT   1404.69     0  02:09      1.79    4.54    1.00
  YS02001644YS02001647 CONDUIT   1845.03     0  02:09      2.35    1.08    1.00
  YS02001647YS02001649 CONDUIT   1846.45     0  02:10      2.38    0.97    1.00
  YS02001649YS02001757 CONDUIT   2146.89     0  02:09      2.74    1.30    1.00
  YS02001652YS02001649 CONDUIT    864.90     0  02:13      1.10    0.43    1.00
  YS02001655YS02001652 CONDUIT    865.73     0  02:13      1.31    0.42    1.00
  YS02001658YS02001655 CONDUIT    864.90     0  02:13      1.93    0.37    1.00
  YS02001661YS02001658 CONDUIT    863.90     0  02:13      2.37    0.34    1.00
  YS02001664YS02001661 CONDUIT    828.80     0  02:13      2.42    0.26    0.84
  YS02001745YS02001748 CONDUIT    620.26     0  02:13      2.27    0.24    0.98
  YS02001748YS02001751 CONDUIT    610.19     0  02:13      1.77    0.31    1.00
  YS02001751YS02001754 CONDUIT    602.39     0  02:13      1.44    0.29    1.00
  YS02001754YS02001757 CONDUIT    593.34     0  02:13      0.76    0.24    1.00
  YS02001757CaochengTiaoxuchi CONDUIT   3462.48     0  02:13      6.04    1.50    0.89
  YS02001759YS02001757 CONDUIT   1405.75     0  02:12      1.79    1.00    1.00
  YS02001762YS02001759 CONDUIT    813.01     0  02:12      1.04    0.94    1.00
  YS02001765YS02001762 CONDUIT    811.73     0  02:12      1.03    0.76    1.00
  YS02001767YS02001765 CONDUIT    813.80     0  02:12      1.04    1.02    1.00
  YS02001770YS02001767 CONDUIT    814.86     0  02:12      1.04    3.23    1.00
  YS02001774YS02001770 CONDUIT    312.87     0  02:10      0.40    0.20    1.00
  YS02001779YS02001774 CONDUIT    314.84     0  02:10      0.41    0.16    1.00
  YS02001783YS02001784 CONDUIT   1164.12     0  02:13      2.32    1.60    1.00
  YS02001784YS02001785 CONDUIT   1166.00     0  02:13      2.32    2.71    1.00
  YS02001786YS02001788 CONDUIT   1166.88     0  02:13      2.48    2.25    0.89
  YS02001788YS02001790 CONDUIT   1169.30     0  02:12      2.72    0.86    0.84
  YS02001790YS02001791 CONDUIT   1295.68     0  02:13      3.43    1.41    0.71
  YS02001791YS02001793 CONDUIT   1252.55     0  02:11      6.77    0.54    0.43
  YS02001793JiankangQianchi CONDUIT   1381.76     0  02:11     14.65    0.11    0.50
  YS02001882YS02001884 CONDUIT     61.01     0  02:08      0.09    0.07    1.00
  YS02001884YS02001887 CONDUIT     79.55     0  02:08      0.10    0.11    1.00
  YS02001887YS02001890 CONDUIT    708.03     0  02:13      0.90    1.21    1.00
  YS02001890YS02001895 CONDUIT    517.88     0  02:14      0.66    0.24    1.00
  YS02001895YS02001898 CONDUIT    518.35     0  02:15      0.66    0.90    1.00
  YS02001898YS02001901 CONDUIT    518.31     0  02:15      0.66    0.33    1.00
  YS02001901YS02001904 CONDUIT    517.87     0  02:15      0.66    0.80    1.00
  YS02001904YS02001907 CONDUIT    518.31     0  02:15      0.66    0.18    1.00
  YS02001907YS02006553 CONDUIT    797.96     0  02:26      0.89    0.94    1.00
  YS02001910YS02001907 CONDUIT   1188.10     0  02:14      1.51    0.67    1.00
  YS02001915YS02001910 CONDUIT   1188.06     0  02:14      1.51    0.59    1.00
  YS02001918YS02001915 CONDUIT    436.25     0  02:11      0.56    0.24    1.00
  YS02001920YS02001918 CONDUIT    436.12     0  02:11      0.67    0.42    1.00
  YS02001923YS02001920 CONDUIT    434.49     0  02:10      0.70    0.20    1.00
  YS02001926YS02001923 CONDUIT    426.58     0  02:10      0.96    0.61    1.00
  YS02001929YS02001926 CONDUIT    407.24     0  02:14      1.13    0.19    1.00
  YS02006553YS02006556 CONDUIT    797.81     0  02:26      1.02    0.68    1.00
  YS02006556YS02006558 CONDUIT    800.19     0  02:26      1.02    0.63    1.00
  YS02006558YS02006561 CONDUIT   1169.77     0  02:09      4.14    2.59    1.00
  YS02006561YS02001783 CONDUIT   1164.72     0  02:13      2.32    0.60    1.00
  YS02163301YS02001633 CONDUIT    947.29     0  02:28      1.21    0.89    1.00
  YS02163601YS02164001 CONDUIT   1405.40     0  02:09      1.79    1.25    1.00
  YS02164001YS02001641 CONDUIT   1404.31     0  02:09      1.79    1.92    1.00
  CC-R1                PUMP       683.00     0  00:00              1.00
  CC-R2                PUMP       683.00     0  00:00              1.00
  CC-S1                PUMP       200.00     0  00:00              1.00
  CC-S2                PUMP       200.00     0  00:00              1.00
  JK-R1                PUMP      1000.00     0  00:00              1.00
  JK-R2                PUMP      1000.00     0  00:00              1.00
  JK-S                 PUMP       300.00     0  00:00              1.00
  
  
  ***************************
  Flow Classification Summary
  ***************************
  
  -------------------------------------------------------------------------------------
                      Adjusted    ---------- Fraction of Time in Flow Class ---------- 
                       /Actual         Up    Down  Sub   Sup   Up    Down  Norm  Inlet 
  Conduit               Length    Dry  Dry   Dry   Crit  Crit  Crit  Crit  Ltd   Ctrl  
  -------------------------------------------------------------------------------------
  1                       1.00   0.00  0.00  0.00  0.00  1.00  0.00  0.00  0.39  0.00
  WS02003060WS02003069    1.00   0.00  0.00  0.00  0.97  0.03  0.00  0.00  0.77  0.00
  WS02003066WSF200        1.00   0.05  0.00  0.00  0.00  0.95  0.00  0.00  0.82  0.00
  WS02003067WS02003066    1.00   0.05  0.00  0.00  0.95  0.00  0.00  0.00  0.00  0.00
  WS02003069WS02003072    1.00   0.00  0.00  0.00  0.99  0.01  0.00  0.00  0.78  0.00
  WS02003072WS02003073    1.00   0.00  0.00  0.00  0.00  0.00  0.00  1.00  0.00  0.00
  WS02004401WS02004402    1.00   0.02  0.00  0.00  0.98  0.00  0.00  0.00  0.00  0.00
  WS02004402WS02004403    1.00   0.02  0.00  0.00  0.98  0.00  0.00  0.00  0.00  0.00
  WS02004403WS02004404    1.00   0.00  0.03  0.00  0.97  0.00  0.00  0.00  0.00  0.00
  WS02004404WS02004405    1.00   0.00  0.00  0.00  1.00  0.00  0.00  0.00  0.01  0.00
  WS02004405WS02004406    1.00   0.00  0.00  0.00  1.00  0.00  0.00  0.00  0.00  0.00
  WS02004406WS02004407    1.00   0.00  0.03  0.00  0.97  0.00  0.00  0.00  0.00  0.00
  WS02004407WS02004409    1.00   0.03  0.00  0.00  0.95  0.01  0.00  0.00  0.95  0.00
  WS02004409WS02004410    1.00   0.03  0.00  0.00  0.96  0.00  0.00  0.00  0.00  0.00
  WS02004410WS02004411    1.00   0.04  0.00  0.00  0.96  0.00  0.00  0.00  0.00  0.00
  WS02004411WS02004412    1.00   0.04  0.00  0.00  0.96  0.00  0.00  0.00  0.00  0.00
  WS02004412WS02004413    1.00   0.04  0.00  0.00  0.96  0.00  0.00  0.00  0.00  0.00
  WS02004413WS02003067    1.00   0.04  0.01  0.00  0.00  0.00  0.95  0.00  0.00  0.00
  WS02006109WS02006110    1.00   0.00  0.01  0.00  0.98  0.00  0.01  0.00  0.00  0.00
  WS02006110WS02006113    1.00   0.01  0.01  0.00  0.98  0.00  0.00  0.00  0.00  0.00
  WS02006111WS02006112    1.00   0.02  0.00  0.00  0.98  0.00  0.00  0.00  0.98  0.00
  WS02006112WS02006115    1.00   0.02  0.00  0.00  0.97  0.00  0.00  0.00  0.00  0.00
  WS02006113WS02006111    1.00   0.02  0.00  0.00  0.00  0.98  0.00  0.00  0.12  0.00
  WS02006115WS02006116    1.00   0.02  0.00  0.00  0.97  0.00  0.00  0.01  0.00  0.00
  WS02006116WS02004401    1.00   0.02  0.00  0.00  0.98  0.00  0.00  0.00  0.00  0.00
  WS02006228WS02006109    1.00   0.00  0.00  0.00  1.00  0.00  0.00  0.00  0.00  0.00
  WS02006229WS02006228    1.00   0.00  0.00  0.00  0.99  0.00  0.00  0.01  0.00  0.00
  WS02006230WS02006229    1.00   0.00  0.00  0.00  0.99  0.00  0.00  0.01  0.02  0.00
  WS02006231WS02006230    1.00   0.00  0.00  0.00  0.23  0.00  0.77  0.00  0.00  0.00
  WS02006232WS02006231    1.00   0.00  0.00  0.00  0.98  0.00  0.02  0.00  0.00  0.00
  WS02006234WS02006232    1.00   0.00  0.00  0.00  1.00  0.00  0.00  0.00  0.09  0.00
  WS02006235WS02006234    1.00   0.00  0.00  0.00  0.89  0.00  0.11  0.00  0.00  0.00
  WS02006238WS02006235    1.00   0.00  0.00  0.00  0.99  0.00  0.00  0.00  0.00  0.00
  WS02006239WS02006238    1.00   0.00  0.00  0.00  1.00  0.00  0.00  0.00  0.28  0.00
  WS02006240WS02006239    1.00   0.00  0.00  0.00  0.61  0.00  0.00  0.39  0.04  0.00
  WS02006242WS02006240    1.00   0.00  0.00  0.00  0.99  0.00  0.00  0.00  0.03  0.00
  WS02006243WS02006242    1.00   0.00  0.00  0.00  0.99  0.00  0.00  0.01  0.66  0.00
  WS02006245WS02006243    1.00   0.00  0.00  0.00  0.48  0.00  0.00  0.52  0.03  0.00
  WS02006247WS02006245    1.00   0.00  0.00  0.00  0.99  0.00  0.00  0.01  0.00  0.00
  WS02006248WS02006247    1.00   0.00  0.00  0.00  0.99  0.00  0.00  0.01  0.19  0.00
  WS02006249WS02006248    1.00   0.00  0.00  0.00  0.31  0.00  0.69  0.00  0.00  0.00
  WS02006251WS02006249    1.00   0.00  0.00  0.00  1.00  0.00  0.00  0.00  0.70  0.00
  WS02006252WS02006251    1.00   0.00  0.45  0.00  0.15  0.00  0.40  0.00  0.00  0.00
  WS02006256WS02006235    1.00   0.00  0.00  0.00  0.98  0.02  0.00  0.00  0.00  0.00
  WSF200WS02003060        1.00   0.00  0.05  0.00  0.45  0.50  0.00  0.00  0.71  0.00
  YS02001580YS02001583    1.00   0.26  0.57  0.00  0.17  0.00  0.00  0.00  0.66  0.00
  YS02001583YS02001586    1.00   0.42  0.35  0.00  0.22  0.00  0.00  0.00  0.66  0.00
  YS02001586YS02001590    1.00   0.13  0.00  0.00  0.41  0.05  0.00  0.41  0.38  0.00
  YS02001590YS02001593    1.00   0.13  0.01  0.00  0.09  0.00  0.77  0.00  0.00  0.00
  YS02001593YS02001596    1.00   0.14  0.00  0.00  0.10  0.01  0.00  0.75  0.02  0.00
  YS02001596YS02001600    1.00   0.14  0.00  0.00  0.17  0.01  0.00  0.68  0.05  0.00
  YS02001600YS02001601    1.00   0.13  0.01  0.00  0.86  0.00  0.00  0.00  0.62  0.00
  YS02001601YS02001602    1.00   0.13  0.01  0.00  0.86  0.00  0.00  0.00  0.00  0.00
  YS02001602YS02001605    1.00   0.14  0.00  0.00  0.86  0.00  0.00  0.00  0.00  0.00
  YS02001605YS02001607    1.00   0.14  0.00  0.00  0.86  0.00  0.00  0.00  0.00  0.00
  YS02001607YS02001610    1.00   0.13  0.01  0.00  0.86  0.00  0.00  0.00  0.02  0.00
  YS02001610YS02001613    1.00   0.13  0.00  0.00  0.87  0.00  0.00  0.00  0.01  0.00
  YS02001613YS02001616    1.00   0.13  0.00  0.00  0.87  0.00  0.00  0.00  0.01  0.00
  YS02001616YS02001619    1.00   0.13  0.00  0.00  0.87  0.00  0.00  0.00  0.00  0.00
  YS02001619YS02001622    1.00   0.13  0.00  0.00  0.87  0.00  0.00  0.00  0.28  0.00
  YS02001622YS02001625    1.00   0.13  0.00  0.00  0.87  0.00  0.00  0.00  0.06  0.00
  YS02001625YS02001629    1.00   0.13  0.06  0.00  0.13  0.00  0.68  0.00  0.00  0.00
  YS02001629YS02163301    1.00   0.17  0.01  0.00  0.82  0.00  0.00  0.00  0.00  0.00
  YS02001633YS02163601    1.00   0.00  0.01  0.00  0.99  0.00  0.00  0.00  0.16  0.00
  YS02001641YS02001644    1.00   0.00  0.01  0.00  0.99  0.00  0.00  0.00  0.00  0.00
  YS02001644YS02001647    1.00   0.00  0.19  0.00  0.81  0.00  0.00  0.00  0.00  0.00
  YS02001647YS02001649    1.00   0.00  0.19  0.00  0.47  0.34  0.00  0.00  0.57  0.00
  YS02001649YS02001757    1.00   0.00  0.00  0.00  0.63  0.37  0.00  0.00  0.54  0.00
  YS02001652YS02001649    1.00   0.00  0.00  0.00  0.96  0.04  0.00  0.00  0.78  0.00
  YS02001655YS02001652    1.00   0.00  0.00  0.00  0.15  0.02  0.00  0.84  0.08  0.00
  YS02001658YS02001655    1.00   0.00  0.15  0.00  0.59  0.26  0.00  0.00  0.75  0.00
  YS02001661YS02001658    1.00   0.15  0.00  0.00  0.43  0.42  0.00  0.00  0.73  0.00
  YS02001664YS02001661    1.00   0.13  0.00  0.00  0.76  0.11  0.00  0.00  0.86  0.00
  YS02001745YS02001748    1.00   0.00  0.00  0.00  0.03  0.01  0.00  0.97  0.02  0.00
  YS02001748YS02001751    1.00   0.00  0.00  0.00  0.76  0.24  0.00  0.00  0.82  0.00
  YS02001751YS02001754    1.00   0.00  0.00  0.00  0.09  0.01  0.00  0.90  0.04  0.00
  YS02001754YS02001757    1.00   0.00  0.00  0.00  1.00  0.00  0.00  0.00  0.89  0.00
  YS02001757CaochengTiaoxuchi    1.00   0.00  0.00  0.00  0.73  0.27  0.00  0.00  0.80  0.00
  YS02001759YS02001757    1.00   0.00  0.00  0.00  1.00  0.00  0.00  0.00  0.64  0.00
  YS02001762YS02001759    1.00   0.00  0.00  0.00  1.00  0.00  0.00  0.00  0.05  0.00
  YS02001765YS02001762    1.00   0.00  0.00  0.00  1.00  0.00  0.00  0.00  0.76  0.00
  YS02001767YS02001765    1.00   0.00  0.00  0.00  1.00  0.00  0.00  0.00  0.00  0.00
  YS02001770YS02001767    1.00   0.00  0.00  0.00  1.00  0.00  0.00  0.00  0.00  0.00
  YS02001774YS02001770    1.00   0.00  0.14  0.00  0.70  0.00  0.16  0.00  0.04  0.00
  YS02001779YS02001774    1.00   0.00  0.00  0.00  1.00  0.00  0.00  0.00  0.82  0.00
  YS02001783YS02001784    1.00   0.00  0.20  0.00  0.80  0.00  0.00  0.00  0.56  0.00
  YS02001784YS02001785    1.00   0.00  0.00  0.00  1.00  0.00  0.00  0.00  0.19  0.00
  YS02001786YS02001788    1.00   0.00  0.00  0.00  0.80  0.20  0.00  0.00  0.00  0.00
  YS02001788YS02001790    1.00   0.00  0.00  0.00  0.23  0.77  0.00  0.00  0.83  0.00
  YS02001790YS02001791    1.00   0.00  0.00  0.00  0.01  0.99  0.00  0.00  0.15  0.00
  YS02001791YS02001793    1.00   0.00  0.00  0.00  0.00  1.00  0.00  0.00  0.01  0.00
  YS02001793JiankangQianchi    1.00   0.00  0.00  0.00  0.67  0.33  0.00  0.00  0.95  0.00
  YS02001882YS02001884    1.00   0.16  0.01  0.00  0.83  0.00  0.00  0.00  0.00  0.00
  YS02001884YS02001887    1.00   0.06  0.05  0.00  0.89  0.00  0.00  0.00  0.00  0.00
  YS02001887YS02001890    1.00   0.00  0.00  0.00  0.97  0.00  0.03  0.00  0.00  0.00
  YS02001890YS02001895    1.00   0.00  0.18  0.00  0.82  0.00  0.00  0.00  0.00  0.00
  YS02001895YS02001898    1.00   0.18  0.00  0.00  0.80  0.00  0.02  0.00  0.00  0.00
  YS02001898YS02001901    1.00   0.18  0.00  0.00  0.82  0.00  0.00  0.00  0.01  0.00
  YS02001901YS02001904    1.00   0.18  0.00  0.00  0.82  0.00  0.00  0.00  0.00  0.00
  YS02001904YS02001907    1.00   0.00  0.18  0.00  0.82  0.00  0.00  0.00  0.00  0.00
  YS02001907YS02006553    1.00   0.00  0.02  0.00  0.98  0.00  0.00  0.00  0.00  0.00
  YS02001910YS02001907    1.00   0.00  0.00  0.00  0.97  0.00  0.00  0.03  0.12  0.00
  YS02001915YS02001910    1.00   0.00  0.00  0.00  0.96  0.04  0.00  0.00  0.18  0.00
  YS02001918YS02001915    1.00   0.00  0.01  0.00  0.98  0.02  0.00  0.00  0.77  0.00
  YS02001920YS02001918    1.00   0.00  0.01  0.00  0.99  0.00  0.00  0.00  0.00  0.00
  YS02001923YS02001920    1.00   0.00  0.00  0.00  1.00  0.00  0.00  0.00  0.94  0.00
  YS02001926YS02001923    1.00   0.00  0.07  0.00  0.05  0.00  0.88  0.00  0.00  0.00
  YS02001929YS02001926    1.00   0.00  0.13  0.00  0.87  0.00  0.00  0.00  0.83  0.00
  YS02006553YS02006556    1.00   0.01  0.00  0.00  0.99  0.00  0.00  0.00  0.03  0.00
  YS02006556YS02006558    1.00   0.00  0.00  0.00  1.00  0.00  0.00  0.00  0.00  0.00
  YS02006558YS02006561    1.00   0.20  0.00  0.00  0.04  0.76  0.00  0.00  0.19  0.00
  YS02006561YS02001783    1.00   0.20  0.00  0.00  0.07  0.73  0.00  0.00  0.69  0.00
  YS02163301YS02001633    1.00   0.00  0.17  0.00  0.83  0.00  0.00  0.00  0.00  0.00
  YS02163601YS02164001    1.00   0.00  0.08  0.00  0.92  0.00  0.00  0.00  0.00  0.00
  YS02164001YS02001641    1.00   0.01  0.08  0.00  0.92  0.00  0.00  0.00  0.06  0.00
  
  
  *************************
  Conduit Surcharge Summary
  *************************
  
  ----------------------------------------------------------------------------
                                                           Hours        Hours 
                         --------- Hours Full --------   Above Full   Capacity
  Conduit                Both Ends  Upstream  Dnstream   Normal Flow   Limited
  ----------------------------------------------------------------------------
  WS02003072WS02003073        0.01      0.01      0.01      1.22         0.01
  WS02004403WS02004404        0.01      0.01      0.01      0.01         0.01
  WS02004404WS02004405        0.01      0.01      0.01      2.60         0.01
  WS02004405WS02004406        0.01      0.01      0.01      0.90         0.01
  WS02006109WS02006110        0.43      0.43      1.67      0.67         0.01
  WS02006110WS02006113        0.01      0.01      1.64      0.01         0.01
  WS02006111WS02006112        0.01      0.01      1.76      0.01         0.01
  WS02006112WS02006115        0.01      0.01      1.12      0.01         0.01
  WS02006228WS02006109        1.55      1.67      1.55      2.04         1.55
  WS02006229WS02006228        1.53      1.58      1.53      1.89         1.51
  WS02006230WS02006229        1.78      1.84      1.78      3.17         1.78
  WS02006231WS02006230        0.49      0.49      1.07      2.70         0.01
  WS02006232WS02006231        0.89      0.89      1.69      0.97         0.01
  WS02006234WS02006232        1.35      1.36      1.69      0.93         0.84
  WS02006235WS02006234        1.11      1.14      1.42      2.53         0.08
  WS02006238WS02006235        1.47      1.47      1.71      0.01         0.04
  WS02006239WS02006238        1.58      1.70      1.59      1.84         1.31
  WS02006240WS02006239        1.52      1.62      1.54      1.85         1.20
  WS02006242WS02006240        1.58      1.58      1.77      1.96         0.02
  WS02006243WS02006242        1.63      1.63      1.72      0.01         0.20
  WS02006245WS02006243        1.60      1.62      1.61      1.49         0.92
  WS02006247WS02006245        1.60      1.65      1.60      2.04         1.51
  WS02006248WS02006247        1.61      1.61      1.64      0.01         0.23
  WS02006249WS02006248        1.59      1.59      1.61      2.03         0.01
  WS02006251WS02006249        1.61      1.62      1.61      1.99         1.46
  WS02006252WS02006251        2.04      2.04      2.04      2.04         0.01
  WS02006256WS02006235        2.40      2.58      5.29      1.50         0.02
  YS02001580YS02001583        0.44      0.44      0.47      0.01         0.01
  YS02001583YS02001586        0.45      0.45      0.54      0.01         0.01
  YS02001586YS02001590        0.55      0.55      0.61      0.01         0.01
  YS02001590YS02001593        0.61      0.61      0.62      0.64         0.01
  YS02001593YS02001596        0.62      0.62      0.70      0.01         0.01
  YS02001596YS02001600        0.74      0.74      0.84      0.01         0.01
  YS02001600YS02001601        0.90      0.90      1.18      0.01         0.01
  YS02001601YS02001602        1.07      1.07      1.22      0.86         0.01
  YS02001602YS02001605        1.02      1.02      1.07      2.06         0.01
  YS02001605YS02001607        0.97      1.02      0.97      1.15         0.97
  YS02001607YS02001610        0.54      0.54      0.57      0.01         0.01
  YS02001610YS02001613        0.53      0.53      0.57      0.01         0.01
  YS02001613YS02001616        0.49      0.49      0.53      0.01         0.01
  YS02001616YS02001619        0.48      0.48      0.49      0.01         0.01
  YS02001619YS02001622        0.47      0.48      0.47      0.64         0.46
  YS02001622YS02001625        0.47      0.47      0.65      0.01         0.01
  YS02001625YS02001629        0.39      0.39      0.65      0.01         0.01
  YS02001629YS02163301        0.63      0.63      0.64      0.31         0.29
  YS02001633YS02163601        0.66      0.66      0.68      0.41         0.41
  YS02001641YS02001644        0.49      0.55      0.49      1.26         0.48
  YS02001644YS02001647        0.29      0.29      0.49      0.05         0.01
  YS02001647YS02001649        0.29      0.29      0.32      0.01         0.01
  YS02001649YS02001757        0.30      0.32      0.30      0.35         0.26
  YS02001652YS02001649        0.23      0.23      0.32      0.01         0.01
  YS02001655YS02001652        0.16      0.16      0.22      0.01         0.01
  YS02001658YS02001655        0.09      0.09      0.16      0.01         0.01
  YS02001661YS02001658        0.01      0.01      0.09      0.01         0.01
  YS02001664YS02001661        0.01      0.01      0.02      0.01         0.01
  YS02001745YS02001748        0.01      0.01      0.02      0.01         0.01
  YS02001748YS02001751        0.07      0.07      0.11      0.01         0.01
  YS02001751YS02001754        0.11      0.11      0.15      0.01         0.01
  YS02001754YS02001757        0.17      0.17      0.30      0.01         0.01
  YS02001757CaochengTiaoxuchi        0.01      0.30      0.01      0.40         0.01
  YS02001759YS02001757        0.26      0.26      0.30      0.01         0.03
  YS02001762YS02001759        0.25      0.25      0.26      0.01         0.03
  YS02001765YS02001762        0.23      0.23      0.25      0.01         0.01
  YS02001767YS02001765        0.22      0.22      0.23      0.01         0.04
  YS02001770YS02001767        0.22      0.22      0.22      0.47         0.21
  YS02001774YS02001770        0.21      0.21      0.25      0.01         0.01
  YS02001779YS02001774        0.18      0.18      0.25      0.01         0.01
  YS02001783YS02001784        0.40      0.42      0.40      0.55         0.40
  YS02001784YS02001785        0.30      0.40      0.30      0.73         0.30
  YS02001786YS02001788        0.01      0.30      0.01      0.63         0.01
  YS02001790YS02001791        0.01      0.01      0.01      0.39         0.01
  YS02001882YS02001884        0.37      0.37      0.38      0.01         0.01
  YS02001884YS02001887        0.40      0.40      0.41      0.01         0.01
  YS02001887YS02001890        0.42      0.42      0.43      0.07         0.01
  YS02001890YS02001895        0.36      0.36      0.45      0.01         0.01
  YS02001895YS02001898        0.35      0.35      0.36      0.01         0.01
  YS02001898YS02001901        0.36      0.36      0.40      0.01         0.01
  YS02001901YS02001904        0.39      0.39      0.40      0.01         0.01
  YS02001904YS02001907        0.39      0.39      0.62      0.01         0.01
  YS02001907YS02006553        0.74      0.74      0.80      0.01         0.01
  YS02001910YS02001907        0.44      0.44      0.61      0.01         0.01
  YS02001915YS02001910        0.37      0.37      0.44      0.01         0.01
  YS02001918YS02001915        0.30      0.30      0.37      0.01         0.01
  YS02001920YS02001918        0.30      0.30      0.31      0.01         0.01
  YS02001923YS02001920        0.26      0.26      0.31      0.01         0.01
  YS02001926YS02001923        0.02      0.02      0.04      0.01         0.01
  YS02001929YS02001926        0.01      0.01      0.04      0.01         0.01
  YS02006553YS02006556        0.53      0.53      0.62      0.01         0.01
  YS02006556YS02006558        0.57      0.57      0.64      0.01         0.01
  YS02006558YS02006561        0.33      0.52      0.33      0.69         0.33
  YS02006561YS02001783        0.26      0.26      0.42      0.01         0.01
  YS02163301YS02001633        0.64      0.64      0.68      0.01         0.01
  YS02163601YS02164001        0.57      0.57      0.68      0.25         0.01
  YS02164001YS02001641        0.55      0.57      0.55      0.63         0.45
  
  
  ***************
  Pumping Summary
  ***************
  
  ---------------------------------------------------------------------------------------------------------
                                                  Min       Avg       Max     Total     Power    % Time Off
                        Percent   Number of      Flow      Flow      Flow    Volume     Usage    Pump Curve
  Pump                 Utilized   Start-Ups       LPS       LPS       LPS  10^6 ltr     Kw-hr    Low   High
  ---------------------------------------------------------------------------------------------------------
  CC-R1                   20.38           2      0.00    683.00    683.00     3.968     65.28    0.0  100.0
  CC-R2                   20.38           2      0.00    683.00    683.00     3.968     65.28    0.0  100.0
  CC-S1                   25.74           3      0.00    200.00    200.00     1.467     11.59    0.0   39.6
  CC-S2                   25.74           3      0.00    200.00    200.00     1.467     11.59    0.0   39.6
  JK-R1                    3.46          45      0.00   1000.00   1000.00     0.985      3.18    0.0    0.0
  JK-R2                    3.46          45      0.00   1000.00   1000.00     0.985      3.18    0.0    0.0
  JK-S                    18.41          82      0.00    300.00    300.00     1.574     35.07    0.0    0.0
  

  Analysis begun on:  Tue Apr 22 10:18:34 2025
  Analysis ended on:  Tue Apr 22 10:18:35 2025
  Total elapsed time: 00:00:01