
  EPA STORM WATER MANAGEMENT MODEL - VERSION 5.2 (Build 5.2.4)
  PYSWMM TOOLKIT API - VERSION v1.0 (2023-11-27)
  ------------------------------------------------------------

  WARNING 04: minimum elevation drop used for Conduit WS02004404WS02004405
  WARNING 03: negative offset ignored for Link YS02001904YS02001907
  
  ****************
  Analysis Options
  ****************
  Flow Units ............... LPS
  Process Models:
    Rainfall/Runoff ........ YES
    RDII ................... NO
    Snowmelt ............... NO
    Groundwater ............ NO
    Flow Routing ........... YES
    Ponding Allowed ........ NO
    Water Quality .......... NO
  Infiltration Method ...... HORTON
  Flow Routing Method ...... DYNWAVE
  Surcharge Method ......... EXTRAN
  Starting Date ............ 08/28/2015 08:00:00
  Ending Date .............. 08/28/2015 16:00:00
  Antecedent Dry Days ...... 8.0
  Report Time Step ......... 00:01:00
  Wet Time Step ............ 00:01:00
  Dry Time Step ............ 00:01:00
  Routing Time Step ........ 30.00 sec
  Variable Time Step ....... YES
  Maximum Trials ........... 8
  Number of Threads ........ 4
  Head Tolerance ........... 0.001500 m
  
  
  **************************        Volume         Depth
  Runoff Quantity Continuity     hectare-m            mm
  **************************     ---------       -------
  Total Precipitation ......         2.185        65.883
  Evaporation Loss .........         0.000         0.000
  Infiltration Loss ........         0.099         2.978
  Surface Runoff ...........         2.054        61.924
  Final Storage ............         0.033         0.996
  Continuity Error (%) .....        -0.024
  
  
  **************************        Volume        Volume
  Flow Routing Continuity        hectare-m      10^6 ltr
  **************************     ---------     ---------
  Dry Weather Inflow .......         0.025         0.248
  Wet Weather Inflow .......         2.054        20.537
  Groundwater Inflow .......         0.000         0.000
  RDII Inflow ..............         0.000         0.000
  External Inflow ..........         0.083         0.825
  External Outflow .........         1.694        16.940
  Flooding Loss ............         0.651         6.509
  Evaporation Loss .........         0.000         0.000
  Exfiltration Loss ........         0.000         0.000
  Initial Stored Volume ....         0.243         2.431
  Final Stored Volume ......         0.068         0.680
  Continuity Error (%) .....        -0.366
  
  
  *************************
  Highest Continuity Errors
  *************************
  Node YS02001583 (-5.72%)
  Node YS02001884 (5.14%)
  Node WS02006256 (-3.58%)
  
  
  ***************************
  Time-Step Critical Elements
  ***************************
  Link WS02006238WS02006235 (28.12%)
  Link WS02004404WS02004405 (22.65%)
  Link WS02003066WSF200 (14.21%)
  Link YS02001791YS02001793 (7.16%)
  Link YS02006556YS02006558 (4.59%)
  
  
  ********************************
  Highest Flow Instability Indexes
  ********************************
  Link WS02006113WS02006111 (35)
  Link WS02006252WS02006251 (25)
  Link WS02006238WS02006235 (22)
  Link WS02006256WS02006235 (22)
  Link WS02006111WS02006112 (18)
  
  
  *********************************
  Most Frequent Nonconverging Nodes
  *********************************
  Node CC-1 (31.58%)
  Node CC-2 (31.58%)
  Node JK-1 (31.58%)
  Node JK-2 (31.58%)
  Node WSC (31.58%)
  
  
  *************************
  Routing Time Step Summary
  *************************
  Minimum Time Step           :     0.00 sec
  Average Time Step           :     3.00 sec
  Maximum Time Step           :     6.43 sec
  % of Time in Steady State   :     0.00
  Average Iterations per Step :     4.25
  % of Steps Not Converging   :    31.58
  Time Step Frequencies       :
     30.000 - 13.228 sec      :     0.00 %
     13.228 -  5.833 sec      :    14.05 %
      5.833 -  2.572 sec      :    36.02 %
      2.572 -  1.134 sec      :    34.37 %
      1.134 -  0.500 sec      :    15.56 %
  
  
  ***************************
  Subcatchment Runoff Summary
  ***************************
  
  ------------------------------------------------------------------------------------------------------------------------------
                            Total      Total      Total      Total     Imperv       Perv      Total       Total     Peak  Runoff
                           Precip      Runon       Evap      Infil     Runoff     Runoff     Runoff      Runoff   Runoff   Coeff
  Subcatchment                 mm         mm         mm         mm         mm         mm         mm    10^6 ltr      LPS
  ------------------------------------------------------------------------------------------------------------------------------
  sub60                     65.88       0.00       0.00       1.79      56.78       6.12      62.89        0.83   594.71   0.955
  sub61                     65.88       0.00       0.00       2.59      53.55       8.61      62.16        1.14   824.76   0.944
  sub62                     65.88       0.00       0.00       1.19      59.33       4.08      63.41        1.74  1161.25   0.962
  sub63                     65.88       0.00       0.00       4.78      45.81      14.33      60.14        1.37   925.56   0.913
  sub64                     65.88       0.00       0.00       2.42      54.79       7.47      62.26        1.50   940.61   0.945
  sub65                     65.88       0.00       0.00       2.09      56.07       6.47      62.54        1.72  1051.38   0.949
  sub66                     65.88       0.00       0.00       5.94      45.70      13.17      58.87        2.75  1367.79   0.894
  sub67                     65.88       0.00       0.00       1.15      59.37       4.12      63.49        1.18   896.05   0.964
  sub68                     65.88       0.00       0.00       2.15      55.47       7.08      62.55        1.72  1192.09   0.949
  sub69                     65.88       0.00       0.00       1.91      55.89       7.98      63.87        2.36  1399.62   0.969
  sub70                     65.88       0.00       0.00       6.40      43.32      16.00      59.32        1.71   768.00   0.900
  sub71                     65.88       0.00       0.00       1.22      59.29       4.05      63.33        1.66  1017.18   0.961
  sub72                     65.88       0.00       0.00       1.09      59.87       3.53      63.39        0.87   492.35   0.962
  
  
  ******************
  Node Depth Summary
  ******************
  
  ---------------------------------------------------------------------------------
                                 Average  Maximum  Maximum  Time of Max    Reported
                                   Depth    Depth      HGL   Occurrence   Max Depth
  Node                 Type       Meters   Meters   Meters  days hr:min      Meters
  ---------------------------------------------------------------------------------
  WS02003060           JUNCTION     0.22     0.38     5.32     0  03:05        0.38
  WS02003066           JUNCTION     0.18     0.30     5.85     0  03:05        0.30
  WS02003067           JUNCTION     0.47     0.70     6.02     0  03:05        0.70
  WS02003069           JUNCTION     0.24     0.43     5.01     0  03:06        0.43
  WS02003072           JUNCTION     0.30     0.50     4.87     0  03:07        0.50
  WS02003073           JUNCTION     0.17     0.30     4.36     0  03:07        0.30
  WS02004401           JUNCTION     0.57     0.85     6.85     0  03:02        0.85
  WS02004402           JUNCTION     0.60     0.88     6.84     0  03:02        0.88
  WS02004403           JUNCTION     0.62     0.89     6.82     0  03:03        0.89
  WS02004404           JUNCTION     0.70     0.96     6.81     0  03:03        0.96
  WS02004405           JUNCTION     0.69     0.96     6.81     0  03:03        0.96
  WS02004406           JUNCTION     0.70     0.96     6.79     0  03:03        0.96
  WS02004407           JUNCTION     0.17     0.30     6.61     0  03:03        0.30
  WS02004409           JUNCTION     0.37     0.67     6.44     0  03:03        0.67
  WS02004410           JUNCTION     0.39     0.68     6.40     0  03:04        0.68
  WS02004411           JUNCTION     0.41     0.69     6.37     0  03:04        0.69
  WS02004412           JUNCTION     0.43     0.70     6.34     0  03:04        0.70
  WS02004413           JUNCTION     0.58     0.86     6.33     0  03:05        0.86
  WS02006109           JUNCTION     0.66     1.43     8.05     0  02:37        1.06
  WS02006110           JUNCTION     0.65     1.59     8.17     0  02:37        1.02
  WS02006111           JUNCTION     0.17     0.29     6.99     0  02:47        0.29
  WS02006112           JUNCTION     0.74     1.11     6.99     0  03:10        1.05
  WS02006113           JUNCTION     0.27     0.46     7.35     0  02:45        0.46
  WS02006115           JUNCTION     0.47     0.75     6.89     0  03:02        0.75
  WS02006116           JUNCTION     0.55     0.83     6.87     0  03:02        0.83
  WS02006228           JUNCTION     0.66     1.33     7.98     0  01:50        1.12
  WS02006229           JUNCTION     0.63     1.41     8.10     0  01:50        1.15
  WS02006230           JUNCTION     0.65     1.76     8.51     0  01:52        1.28
  WS02006231           JUNCTION     0.45     2.24     9.36     0  01:51        1.28
  WS02006232           JUNCTION     0.58     2.08     9.12     0  02:26        1.65
  WS02006234           JUNCTION     0.52     1.96     9.12     0  02:00        1.96
  WS02006235           JUNCTION     0.56     2.00     9.16     0  02:00        2.00
  WS02006238           JUNCTION     0.59     2.15     9.29     0  02:00        2.15
  WS02006239           JUNCTION     0.55     2.03     9.24     0  02:00        2.03
  WS02006240           JUNCTION     0.52     2.10     9.39     0  02:00        2.10
  WS02006242           JUNCTION     0.59     1.55     8.82     0  01:51        1.55
  WS02006243           JUNCTION     0.51     1.48     8.90     0  02:00        1.48
  WS02006245           JUNCTION     0.51     1.56     9.04     0  02:00        1.56
  WS02006247           JUNCTION     0.53     1.47     8.97     0  02:00        1.47
  WS02006248           JUNCTION     0.50     1.10     8.69     0  01:50        1.10
  WS02006249           JUNCTION     0.52     1.09     8.69     0  01:50        1.09
  WS02006251           JUNCTION     0.52     1.59     9.26     0  01:50        1.23
  WS02006252           JUNCTION     0.33     1.50     9.74     0  00:00        0.91
  WS02006256           JUNCTION     1.13     2.35     9.28     0  00:00        2.35
  WSF200               JUNCTION     0.16     0.29     5.52     0  03:05        0.29
  YS02001580           JUNCTION     0.14     1.05     9.59     0  01:54        0.77
  YS02001583           JUNCTION     0.17     1.02     9.51     0  01:54        0.82
  YS02001586           JUNCTION     0.27     1.13     9.30     0  01:54        1.13
  YS02001590           JUNCTION     0.38     1.40     9.26     0  01:54        1.40
  YS02001593           JUNCTION     0.31     1.37     9.23     0  02:24        1.37
  YS02001596           JUNCTION     0.43     1.72     9.14     0  02:24        1.72
  YS02001600           JUNCTION     0.51     1.87     9.00     0  01:54        1.86
  YS02001601           JUNCTION     0.69     2.06     8.90     0  01:52        2.06
  YS02001602           JUNCTION     0.59     1.87     8.77     0  01:53        1.87
  YS02001605           JUNCTION     0.54     1.78     8.68     0  01:53        1.78
  YS02001607           JUNCTION     0.51     1.68     8.53     0  01:53        1.68
  YS02001610           JUNCTION     0.55     1.68     8.48     0  01:53        1.68
  YS02001613           JUNCTION     0.51     1.70     8.54     0  01:53        1.67
  YS02001616           JUNCTION     0.45     1.61     8.52     0  01:53        1.61
  YS02001619           JUNCTION     0.42     1.61     8.54     0  02:00        1.61
  YS02001622           JUNCTION     0.41     1.58     8.49     0  02:00        1.58
  YS02001625           JUNCTION     0.65     1.78     8.38     0  01:56        1.78
  YS02001629           JUNCTION     0.54     1.85     8.40     0  01:53        1.85
  YS02001633           JUNCTION     0.61     2.08     8.53     0  02:00        2.08
  YS02001641           JUNCTION     0.57     1.97     8.41     0  01:58        1.95
  YS02001644           JUNCTION     0.56     1.92     8.35     0  01:58        1.92
  YS02001647           JUNCTION     0.34     1.80     8.41     0  01:59        1.80
  YS02001649           JUNCTION     0.38     2.05     8.44     0  01:59        1.96
  YS02001652           JUNCTION     0.27     1.96     8.56     0  01:58        1.77
  YS02001655           JUNCTION     0.20     1.98     8.83     0  01:58        1.56
  YS02001658           JUNCTION     0.14     1.96     9.10     0  01:58        1.32
  YS02001661           JUNCTION     0.17     1.41     8.82     0  01:59        1.23
  YS02001664           JUNCTION     0.07     0.80     8.72     0  01:59        0.77
  YS02001745           JUNCTION     0.08     1.41     8.93     0  01:59        0.82
  YS02001748           JUNCTION     0.12     1.96     9.04     0  01:59        1.24
  YS02001751           JUNCTION     0.15     2.18     9.06     0  01:58        1.41
  YS02001754           JUNCTION     0.22     1.97     8.58     0  01:59        1.66
  YS02001757           JUNCTION     0.37     2.15     8.41     0  01:59        1.98
  YS02001759           JUNCTION     0.32     2.21     8.57     0  02:00        2.21
  YS02001762           JUNCTION     0.32     2.10     8.50     0  01:59        1.97
  YS02001765           JUNCTION     0.30     2.06     8.51     0  01:59        1.93
  YS02001767           JUNCTION     0.29     2.01     8.50     0  01:59        1.92
  YS02001770           JUNCTION     0.31     1.95     8.44     0  01:59        1.95
  YS02001774           JUNCTION     0.37     2.00     8.42     0  01:59        1.99
  YS02001779           JUNCTION     0.21     1.68     8.37     0  01:57        1.68
  YS02001783           JUNCTION     0.31     1.59     7.73     0  01:56        1.29
  YS02001784           JUNCTION     0.32     1.34     7.41     0  01:56        1.13
  YS02001786           JUNCTION     0.26     1.01     7.04     0  01:56        0.88
  YS02001788           JUNCTION     0.19     0.63     6.60     0  02:00        0.62
  YS02001790           JUNCTION     0.22     0.73     6.37     0  02:03        0.72
  YS02001791           JUNCTION     0.14     0.44     5.91     0  02:03        0.44
  YS02001793           JUNCTION     0.07     0.25     5.08     0  01:59        0.24
  YS02001882           JUNCTION     0.39     1.76     8.48     0  02:00        1.76
  YS02001884           JUNCTION     0.47     1.88     8.49     0  02:00        1.88
  YS02001887           JUNCTION     0.54     2.00     8.54     0  02:00        2.00
  YS02001890           JUNCTION     0.57     1.81     8.32     0  01:56        1.81
  YS02001895           JUNCTION     0.36     1.65     8.40     0  02:00        1.65
  YS02001898           JUNCTION     0.36     1.66     8.40     0  02:00        1.66
  YS02001901           JUNCTION     0.47     1.75     8.36     0  02:00        1.75
  YS02001904           JUNCTION     0.45     1.69     8.32     0  02:00        1.69
  YS02001907           JUNCTION     0.75     1.96     8.25     0  01:56        1.96
  YS02001910           JUNCTION     0.56     1.97     8.48     0  01:57        1.96
  YS02001915           JUNCTION     0.39     2.00     8.72     0  02:00        2.00
  YS02001918           JUNCTION     0.24     1.81     8.88     0  01:57        1.81
  YS02001920           JUNCTION     0.32     2.14     9.15     0  01:57        1.80
  YS02001923           JUNCTION     0.18     2.03     9.29     0  01:57        1.32
  YS02001926           JUNCTION     0.21     1.90     9.35     0  01:57        1.15
  YS02001929           JUNCTION     0.12     1.78     9.47     0  01:57        0.90
  YS02006553           JUNCTION     0.75     2.19     8.47     0  02:00        2.19
  YS02006556           JUNCTION     0.72     2.39     8.70     0  02:00        2.39
  YS02006558           JUNCTION     0.76     2.50     8.77     0  02:00        2.50
  YS02006561           JUNCTION     0.20     1.26     7.92     0  01:56        0.90
  YS02163301           JUNCTION     0.56     1.96     8.48     0  02:00        1.96
  YS02163601           JUNCTION     0.63     2.08     8.48     0  02:00        2.08
  YS02164001           JUNCTION     0.56     2.02     8.48     0  02:00        2.02
  CC-1                 OUTFALL      0.00     0.00     0.00     0  00:00        0.00
  CC-2                 OUTFALL      0.00     0.00     0.00     0  00:00        0.00
  JK-1                 OUTFALL      0.00     0.00     0.00     0  00:00        0.00
  JK-2                 OUTFALL      0.00     0.00     0.00     0  00:00        0.00
  WSC                  OUTFALL      0.17     0.30     0.97     0  03:08        0.30
  CC-storage           STORAGE      0.40     1.13     6.63     0  02:34        1.13
  JK-storage           STORAGE      0.20     2.99     3.79     0  00:00        0.68
  
  
  *******************
  Node Inflow Summary
  *******************
  
  -------------------------------------------------------------------------------------------------
                                  Maximum  Maximum                  Lateral       Total        Flow
                                  Lateral    Total  Time of Max      Inflow      Inflow     Balance
                                   Inflow   Inflow   Occurrence      Volume      Volume       Error
  Node                 Type           LPS      LPS  days hr:min    10^6 ltr    10^6 ltr     Percent
  -------------------------------------------------------------------------------------------------
  WS02003060           JUNCTION     16.53   552.80     0  03:05       0.471        4.91       0.041
  WS02003066           JUNCTION      0.00   536.23     0  03:05           0        4.44       0.034
  WS02003067           JUNCTION      0.00   536.22     0  03:05           0        4.45       0.092
  WS02003069           JUNCTION      0.32   553.10     0  03:06     0.00912        4.92       0.079
  WS02003072           JUNCTION      0.00   553.04     0  03:06           0        4.92       0.146
  WS02003073           JUNCTION      1.82   554.84     0  03:07      0.0519        4.96       0.110
  WS02004401           JUNCTION      0.00   540.07     0  02:46           0        4.55       0.227
  WS02004402           JUNCTION      0.00   536.88     0  02:46           0        4.54       0.230
  WS02004403           JUNCTION      0.00   536.79     0  02:46           0        4.53       0.225
  WS02004404           JUNCTION      0.16   536.64     0  03:03     0.00462        4.52       0.200
  WS02004405           JUNCTION      0.04   536.68     0  03:03     0.00109        4.52       0.265
  WS02004406           JUNCTION      0.00   536.74     0  03:03           0         4.5       0.467
  WS02004407           JUNCTION      0.00   536.56     0  03:03           0        4.48       0.023
  WS02004409           JUNCTION      0.00   536.47     0  03:03           0        4.48       0.059
  WS02004410           JUNCTION      0.00   536.37     0  03:04           0        4.48       0.100
  WS02004411           JUNCTION      0.00   536.29     0  03:04           0        4.47       0.125
  WS02004412           JUNCTION      0.00   536.30     0  03:04           0        4.47       0.166
  WS02004413           JUNCTION      0.00   536.23     0  03:04           0        4.46       0.308
  WS02006109           JUNCTION      1.23   571.37     0  02:00      0.0351         4.6       0.164
  WS02006110           JUNCTION      0.00   573.09     0  02:00           0        4.59       0.133
  WS02006111           JUNCTION      0.00   561.97     0  02:00           0        4.58       0.017
  WS02006112           JUNCTION      0.00   543.07     0  02:47           0        4.58       0.454
  WS02006113           JUNCTION      0.00   581.12     0  03:10           0        4.58       0.043
  WS02006115           JUNCTION      0.00   553.01     0  03:08           0        4.56       0.155
  WS02006116           JUNCTION      0.00   537.55     0  02:53           0        4.55       0.051
  WS02006228           JUNCTION      0.00   566.77     0  02:00           0        4.56       0.042
  WS02006229           JUNCTION      0.00   565.04     0  01:51           0        4.57       0.154
  WS02006230           JUNCTION     10.28   600.65     0  01:50       0.293        4.57       0.035
  WS02006231           JUNCTION      0.00   582.56     0  03:14           0        4.27      -0.117
  WS02006232           JUNCTION      0.00   582.20     0  03:14           0        4.29       0.381
  WS02006234           JUNCTION      0.00   579.67     0  03:14           0        4.27      -0.575
  WS02006235           JUNCTION      0.00   573.35     0  03:14           0        4.42       0.453
  WS02006238           JUNCTION      0.00   423.66     0  03:06           0         3.3      -0.094
  WS02006239           JUNCTION      0.00   431.08     0  05:23           0        3.21      -0.082
  WS02006240           JUNCTION      0.00   420.09     0  03:06           0        3.14       0.004
  WS02006242           JUNCTION      0.00   420.17     0  03:06           0        3.11       0.030
  WS02006243           JUNCTION      0.00   420.03     0  03:06           0        3.08      -0.112
  WS02006245           JUNCTION      0.00   419.00     0  03:15           0        3.09       0.337
  WS02006247           JUNCTION      0.00   419.28     0  03:15           0        3.09      -0.017
  WS02006248           JUNCTION      0.00   419.86     0  03:11           0         3.1       0.131
  WS02006249           JUNCTION      0.00   467.50     0  01:45           0        3.34       0.321
  WS02006251           JUNCTION      0.08   406.68     0  01:50     0.00219        3.34      -0.011
  WS02006252           JUNCTION      0.00   400.00     0  00:00           0        3.33      -0.037
  WS02006256           JUNCTION      0.00   315.77     0  02:21           0        1.74      -3.457
  WSF200               JUNCTION      0.00   536.23     0  03:05           0        4.44       0.008
  YS02001580           JUNCTION      0.00   126.50     0  01:54           0     0.00439       0.134
  YS02001583           JUNCTION      0.00   173.55     0  01:54           0      0.0152      -5.407
  YS02001586           JUNCTION    768.00   768.00     0  02:04        1.71        1.73       0.079
  YS02001590           JUNCTION      0.00   318.01     0  02:00           0        1.32      -0.037
  YS02001593           JUNCTION      0.00   319.72     0  02:24           0        1.32       0.015
  YS02001596           JUNCTION      0.00   318.12     0  02:09           0        1.32      -0.001
  YS02001600           JUNCTION      0.00   318.06     0  02:00           0        1.32       0.014
  YS02001601           JUNCTION   1399.62  1717.00     0  02:03        2.36        3.68       0.024
  YS02001602           JUNCTION      0.00   523.48     0  01:53           0        2.26       0.021
  YS02001605           JUNCTION      0.00   523.62     0  01:53           0        2.16       0.021
  YS02001607           JUNCTION      0.00   524.50     0  01:53           0        2.16       0.097
  YS02001610           JUNCTION      0.00   757.92     0  02:03           0        2.41       0.104
  YS02001613           JUNCTION      0.00   531.23     0  01:53           0        1.99       0.092
  YS02001616           JUNCTION      0.00   535.19     0  01:53           0        1.99       0.024
  YS02001619           JUNCTION   1367.79  1367.79     0  02:04        2.74        4.47       0.006
  YS02001622           JUNCTION      0.00   961.97     0  02:01           0        4.22       0.002
  YS02001625           JUNCTION      0.00  1349.72     0  02:05           0        4.39       0.209
  YS02001629           JUNCTION      0.00   947.70     0  02:24           0        3.63       0.023
  YS02001633           JUNCTION   1051.58  1402.93     0  01:56        1.73        5.12       0.069
  YS02001641           JUNCTION      0.00  1401.08     0  01:56           0        4.89       0.057
  YS02001644           JUNCTION    940.65  1840.28     0  01:56         1.5        6.38       0.053
  YS02001647           JUNCTION      0.00  1841.99     0  01:56           0        6.02       0.008
  YS02001649           JUNCTION      0.00  2151.23     0  01:56           0        7.39       0.009
  YS02001652           JUNCTION      0.00   956.01     0  02:00           0        1.37      -0.080
  YS02001655           JUNCTION      0.15   955.05     0  02:00     0.00439        1.37       0.034
  YS02001658           JUNCTION      0.00   955.02     0  02:00           0        1.36       0.002
  YS02001661           JUNCTION      0.00   954.07     0  02:00           0        1.36       0.013
  YS02001664           JUNCTION    925.56   925.56     0  02:02        1.36        1.36      -0.010
  YS02001745           JUNCTION    594.72   594.72     0  02:02       0.826       0.827       0.127
  YS02001748           JUNCTION      0.04   630.96     0  02:01     0.00128       0.828      -0.197
  YS02001751           JUNCTION      0.01   629.98     0  02:01    0.000313       0.834       0.061
  YS02001754           JUNCTION      0.26   629.99     0  02:01     0.00741       0.846      -0.108
  YS02001757           JUNCTION      0.00  3521.01     0  02:02           0          11       0.060
  YS02001759           JUNCTION    824.80  1438.45     0  02:01        1.14        2.72      -0.002
  YS02001762           JUNCTION      0.00   829.52     0  02:07           0        1.58       0.008
  YS02001765           JUNCTION      0.00   829.34     0  02:07           0        1.58       0.016
  YS02001767           JUNCTION      0.54   828.42     0  02:07      0.0152        1.58       0.010
  YS02001770           JUNCTION   1161.41  1161.41     0  02:02        1.74        1.78      -0.015
  YS02001774           JUNCTION      0.00   552.55     0  02:02           0       0.235       0.523
  YS02001779           JUNCTION      0.01   553.14     0  02:02    0.000142       0.194      -0.295
  YS02001783           JUNCTION      0.00  1181.85     0  02:00           0        3.97       0.007
  YS02001784           JUNCTION      1.06  1181.99     0  02:00      0.0302           4       0.014
  YS02001786           JUNCTION      0.06  1183.82     0  02:00      0.0016           4       0.018
  YS02001788           JUNCTION      0.07  1187.29     0  02:00     0.00202           4       0.007
  YS02001790           JUNCTION      0.15  1181.59     0  02:00     0.00442           4       0.013
  YS02001791           JUNCTION      0.00  1293.62     0  02:03           0           4      -0.017
  YS02001793           JUNCTION      0.00  1251.96     0  02:01           0           4      -0.015
  YS02001882           JUNCTION      0.00    60.88     0  01:55           0      0.0128       5.891
  YS02001884           JUNCTION      0.00    74.22     0  01:55           0      0.0485       5.421
  YS02001887           JUNCTION    896.50   897.69     0  02:01        1.19        1.23       0.363
  YS02001890           JUNCTION      0.00   898.64     0  02:01           0        1.19       0.438
  YS02001895           JUNCTION      0.00   517.92     0  02:07           0        1.05       0.146
  YS02001898           JUNCTION      0.00   517.97     0  02:07           0        1.05       0.015
  YS02001901           JUNCTION      0.00   517.53     0  02:05           0        1.05       0.323
  YS02001904           JUNCTION      0.00   517.64     0  02:05           0        1.06       0.281
  YS02001907           JUNCTION      0.00  2055.19     0  02:02           0        3.66       0.494
  YS02001910           JUNCTION      0.00  1527.75     0  02:02           0        2.61       0.281
  YS02001915           JUNCTION   1017.20  1527.52     0  02:02        1.66        2.65       0.061
  YS02001918           JUNCTION      0.00   510.99     0  02:02           0        1.02       0.033
  YS02001920           JUNCTION      2.87   511.00     0  02:02      0.0818        1.01       0.082
  YS02001923           JUNCTION      0.04   507.95     0  02:02     0.00107       0.908      -0.036
  YS02001926           JUNCTION      0.05   616.66     0  01:57     0.00149       0.888      -0.015
  YS02001929           JUNCTION    492.35   492.35     0  02:03       0.872       0.874      -0.012
  YS02006553           JUNCTION      0.00   798.69     0  02:19           0        2.27       0.530
  YS02006556           JUNCTION      0.00   798.62     0  02:19           0        2.28       0.360
  YS02006558           JUNCTION   1192.97  1192.97     0  02:02        1.75           4       0.085
  YS02006561           JUNCTION      0.00  1176.30     0  02:00           0        3.97      -0.001
  YS02163301           JUNCTION      0.00   955.11     0  02:24           0        3.62       0.045
  YS02163601           JUNCTION      0.11  1402.43     0  01:56     0.00313        4.89       0.104
  YS02164001           JUNCTION      0.00  1401.87     0  01:56           0        4.89       0.054
  CC-1                 OUTFALL       0.00   683.00     0  00:00           0        4.77       0.000
  CC-2                 OUTFALL       0.00   683.00     0  00:00           0        4.77       0.000
  JK-1                 OUTFALL       0.00  1000.00     0  00:00           0        1.22       0.000
  JK-2                 OUTFALL       0.00  1000.00     0  00:00           0        1.22       0.000
  WSC                  OUTFALL       0.00   554.82     0  03:08           0        4.96       0.000
  CC-storage           STORAGE       0.00  3519.60     0  02:02           0        13.2      -0.363
  JK-storage           STORAGE       0.00  1401.47     0  02:01           0        4.15      -0.528
  
  
  **********************
  Node Surcharge Summary
  **********************
  
  Surcharging occurs when water rises above the top of the highest conduit.
  ---------------------------------------------------------------------
                                               Max. Height   Min. Depth
                                   Hours       Above Crown    Below Rim
  Node                 Type      Surcharged         Meters       Meters
  ---------------------------------------------------------------------
  WS02006109           JUNCTION        1.85          0.611        1.209
  WS02006110           JUNCTION        0.53          0.676        1.174
  WS02006112           JUNCTION        1.22          0.107        1.573
  WS02006228           JUNCTION        1.82          0.498        1.702
  WS02006229           JUNCTION        1.86          0.609        1.841
  WS02006230           JUNCTION        0.58          0.680        0.890
  WS02006231           JUNCTION        1.07          1.530        0.000
  WS02006232           JUNCTION        1.95          1.379        0.101
  WS02006234           JUNCTION        1.40          1.240        0.000
  WS02006235           JUNCTION        1.67          1.290        0.000
  WS02006238           JUNCTION        1.83          1.430        0.000
  WS02006239           JUNCTION        1.80          1.290        0.000
  WS02006240           JUNCTION        1.86          1.390        0.000
  WS02006242           JUNCTION        1.99          0.820        0.000
  WS02006243           JUNCTION        1.87          0.770        0.000
  WS02006245           JUNCTION        1.87          0.850        0.000
  WS02006247           JUNCTION        1.88          0.760        0.000
  WS02006248           JUNCTION        1.85          0.380        0.000
  WS02006249           JUNCTION        1.87          0.390        0.000
  WS02006251           JUNCTION        1.37          0.558        0.622
  WS02006252           JUNCTION        2.31          1.100        0.000
  WS02006256           JUNCTION        5.91          2.050        0.000
  YS02001580           JUNCTION        0.63          0.450        0.000
  YS02001583           JUNCTION        0.63          0.377        0.123
  YS02001586           JUNCTION        0.72          0.510        0.000
  YS02001590           JUNCTION        0.79          0.750        0.000
  YS02001593           JUNCTION        0.79          0.746        0.094
  YS02001596           JUNCTION        0.90          0.988        0.082
  YS02001600           JUNCTION        1.05          1.190        0.000
  YS02001601           JUNCTION        1.42          1.440        0.000
  YS02001602           JUNCTION        1.32          1.270        0.000
  YS02001605           JUNCTION        1.26          1.180        0.000
  YS02001607           JUNCTION        0.72          0.680        0.000
  YS02001610           JUNCTION        0.75          0.680        0.000
  YS02001613           JUNCTION        0.71          0.700        0.000
  YS02001616           JUNCTION        0.67          0.610        0.000
  YS02001619           JUNCTION        0.65          0.610        0.000
  YS02001622           JUNCTION        0.64          0.584        0.036
  YS02001625           JUNCTION        0.84          0.780        0.000
  YS02001629           JUNCTION        0.56          0.470        0.000
  YS02001633           JUNCTION        0.84          1.060        0.000
  YS02001641           JUNCTION        0.73          0.973        0.127
  YS02001644           JUNCTION        0.67          0.920        0.000
  YS02001647           JUNCTION        0.44          0.804        0.096
  YS02001649           JUNCTION        0.49          1.050        0.000
  YS02001652           JUNCTION        0.33          0.932        0.198
  YS02001655           JUNCTION        0.25          0.982        0.218
  YS02001658           JUNCTION        0.17          0.961        0.339
  YS02001661           JUNCTION        0.04          0.342        1.048
  YS02001745           JUNCTION        0.01          0.414        0.936
  YS02001748           JUNCTION        0.10          0.884        0.306
  YS02001751           JUNCTION        0.19          1.181        0.019
  YS02001754           JUNCTION        0.25          0.922        0.228
  YS02001757           JUNCTION        0.48          1.148        0.062
  YS02001759           JUNCTION        0.41          1.208        0.002
  YS02001762           JUNCTION        0.38          1.103        0.047
  YS02001765           JUNCTION        0.35          1.062        0.038
  YS02001767           JUNCTION        0.33          1.009        0.021
  YS02001770           JUNCTION        0.32          0.920        0.000
  YS02001774           JUNCTION        0.38          1.003        0.047
  YS02001779           JUNCTION        0.28          0.680        0.000
  YS02001783           JUNCTION        0.55          0.793        0.807
  YS02001784           JUNCTION        0.52          0.545        0.945
  YS02001786           JUNCTION        0.42          0.213        1.217
  YS02001882           JUNCTION        0.50          0.765        0.065
  YS02001884           JUNCTION        0.51          0.817        0.053
  YS02001887           JUNCTION        0.54          0.950        0.000
  YS02001890           JUNCTION        0.55          0.760        0.000
  YS02001895           JUNCTION        0.49          0.651        0.099
  YS02001898           JUNCTION        0.48          0.631        0.109
  YS02001901           JUNCTION        0.53          0.747        0.123
  YS02001904           JUNCTION        0.52          0.687        0.163
  YS02001907           JUNCTION        0.75          0.950        0.000
  YS02001910           JUNCTION        0.58          0.969        0.131
  YS02001915           JUNCTION        0.49          1.000        0.000
  YS02001918           JUNCTION        0.41          0.810        0.000
  YS02001920           JUNCTION        0.42          1.140        0.000
  YS02001923           JUNCTION        0.13          0.820        0.000
  YS02001926           JUNCTION        0.15          0.900        0.000
  YS02001929           JUNCTION        0.01          0.780        0.000
  YS02006553           JUNCTION        0.77          1.190        0.000
  YS02006556           JUNCTION        0.66          1.347        0.003
  YS02006558           JUNCTION        0.65          1.400        0.000
  YS02006561           JUNCTION        0.38          0.459        0.691
  YS02163301           JUNCTION        0.82          0.964        0.066
  YS02163601           JUNCTION        0.87          1.080        0.000
  YS02164001           JUNCTION        0.75          1.019        0.081
  
  
  *********************
  Node Flooding Summary
  *********************
  
  Flooding refers to all water that overflows a node, whether it ponds or not.
  --------------------------------------------------------------------------
                                                             Total   Maximum
                                 Maximum   Time of Max       Flood    Ponded
                        Hours       Rate    Occurrence      Volume     Depth
  Node                 Flooded       LPS   days hr:min    10^6 ltr    Meters
  --------------------------------------------------------------------------
  WS02006231              0.01     74.67      0  01:51       0.000     0.000
  WS02006234              0.01    163.06      0  02:36       0.000     0.000
  WS02006235              0.01     10.85      0  02:36       0.000     0.000
  WS02006238              0.01      3.97      0  02:00       0.000     0.000
  WS02006239              0.01      6.68      0  02:36       0.000     0.000
  WS02006240              0.01      2.27      0  03:12       0.000     0.000
  WS02006242              0.01     25.82      0  02:36       0.000     0.000
  WS02006243              0.01      4.19      0  02:39       0.000     0.000
  WS02006245              0.01      2.63      0  03:12       0.000     0.000
  WS02006247              0.01      2.26      0  03:12       0.000     0.000
  WS02006248              0.18     31.24      0  02:08       0.009     0.000
  WS02006249              1.24     94.11      0  03:10       0.227     0.000
  WS02006252              0.01    245.63      0  00:00       0.000     0.000
  WS02006256              1.61    293.19      0  00:00       0.593     0.000
  YS02001580              0.01    108.55      0  01:54       0.000     0.000
  YS02001586              0.51    450.23      0  02:04       0.396     0.000
  YS02001590              0.01      7.52      0  01:54       0.000     0.000
  YS02001600              0.01      1.76      0  02:24       0.000     0.000
  YS02001601              0.63   1319.18      0  02:03       1.421     0.000
  YS02001602              0.48     62.01      0  02:14       0.098     0.000
  YS02001605              0.01      3.39      0  01:54       0.000     0.000
  YS02001607              0.01     10.44      0  01:53       0.000     0.000
  YS02001610              0.43    757.79      0  02:04       0.681     0.000
  YS02001613              0.01     15.57      0  01:53       0.000     0.000
  YS02001616              0.01     16.81      0  01:54       0.000     0.000
  YS02001619              0.01      2.46      0  02:00       0.000     0.000
  YS02001625              0.35   1349.56      0  02:05       0.971     0.000
  YS02001629              0.12    283.94      0  02:01       0.068     0.000
  YS02001633              0.01      1.26      0  02:00       0.000     0.000
  YS02001644              0.16    966.56      0  02:02       0.352     0.000
  YS02001649              0.01      2.35      0  01:59       0.000     0.000
  YS02001770              0.01     26.33      0  01:59       0.000     0.000
  YS02001779              0.15    553.14      0  02:02       0.177     0.000
  YS02001887              0.01      1.84      0  02:00       0.000     0.000
  YS02001890              0.18    383.17      0  02:01       0.127     0.000
  YS02001907              0.36   2054.97      0  02:02       1.381     0.000
  YS02001915              0.01      2.18      0  02:00       0.000     0.000
  YS02001918              0.01    226.10      0  01:57       0.003     0.000
  YS02001920              0.01     57.69      0  01:57       0.000     0.000
  YS02001923              0.01    134.81      0  01:57       0.000     0.000
  YS02001926              0.01    344.29      0  01:57       0.002     0.000
  YS02001929              0.01     82.08      0  01:57       0.000     0.000
  YS02006553              0.01      0.55      0  02:00       0.000     0.000
  YS02006558              0.01      1.27      0  02:00       0.000     0.000
  YS02163601              0.01      0.27      0  02:00       0.000     0.000
  
  
  **********************
  Storage Volume Summary
  **********************
  
  ------------------------------------------------------------------------------------------------
                         Average    Avg   Evap  Exfil     Maximum    Max    Time of Max    Maximum
                          Volume   Pcnt   Pcnt   Pcnt      Volume   Pcnt     Occurrence    Outflow
  Storage Unit           1000 m³   Full   Loss   Loss     1000 m³   Full    days hr:min        LPS
  ------------------------------------------------------------------------------------------------
  CC-storage               1.105   17.2    0.0    0.0       3.155   49.2       0  02:34    1783.53
  JK-storage               0.010    3.4    0.0    0.0       0.150   51.6       0  00:00    2300.00
  
  
  ***********************
  Outfall Loading Summary
  ***********************
  
  -----------------------------------------------------------
                         Flow       Avg       Max       Total
                         Freq      Flow      Flow      Volume
  Outfall Node           Pcnt       LPS       LPS    10^6 ltr
  -----------------------------------------------------------
  CC-1                  44.25    683.00    683.00       4.775
  CC-2                  44.25    683.00    683.00       4.775
  JK-1                   8.04   1000.00   1000.00       1.218
  JK-2                   8.04   1000.00   1000.00       1.218
  WSC                   99.94    238.02    554.82       4.955
  -----------------------------------------------------------
  System                40.91   3604.02   3904.56      16.940
  
  
  ********************
  Link Flow Summary
  ********************
  
  -----------------------------------------------------------------------------
                                 Maximum  Time of Max   Maximum    Max/    Max/
                                  |Flow|   Occurrence   |Veloc|    Full    Full
  Link                 Type          LPS  days hr:min     m/sec    Flow   Depth
  -----------------------------------------------------------------------------
  1                    CONDUIT    554.82     0  03:08      2.83    0.19    0.30
  WS02003060WS02003069 CONDUIT    552.78     0  03:06      1.64    0.22    0.34
  WS02003066WSF200     CONDUIT    536.23     0  03:05      2.85    0.09    0.22
  WS02003067WS02003066 CONDUIT    536.23     0  03:05      1.21    0.17    0.42
  WS02003069WS02003072 CONDUIT    553.04     0  03:06      1.37    0.27    0.39
  WS02003072WS02003073 CONDUIT    553.02     0  03:07      1.43    1.19    0.37
  WS02004401WS02004402 CONDUIT    536.88     0  02:46      1.22    0.64    0.86
  WS02004402WS02004403 CONDUIT    536.79     0  02:46      1.24    0.77    0.88
  WS02004403WS02004404 CONDUIT    536.48     0  03:03      1.24    0.39    0.93
  WS02004404WS02004405 CONDUIT    536.65     0  03:03      1.45    5.26    0.96
  WS02004405WS02004406 CONDUIT    536.74     0  03:03      1.46    1.06    0.96
  WS02004406WS02004407 CONDUIT    536.56     0  03:03      1.04    0.24    0.63
  WS02004407WS02004409 CONDUIT    536.47     0  03:03      1.59    0.19    0.48
  WS02004409WS02004410 CONDUIT    536.37     0  03:04      1.06    0.69    0.67
  WS02004410WS02004411 CONDUIT    536.29     0  03:04      1.13    0.73    0.69
  WS02004411WS02004412 CONDUIT    536.30     0  03:04      1.20    0.76    0.69
  WS02004412WS02004413 CONDUIT    536.23     0  03:04      1.22    0.36    0.78
  WS02004413WS02003067 CONDUIT    536.22     0  03:05      1.11    0.23    0.59
  WS02006109WS02006110 CONDUIT    573.09     0  02:00      1.14    1.10    1.00
  WS02006110WS02006113 CONDUIT    581.12     0  03:10      1.40    0.53    0.79
  WS02006111WS02006112 CONDUIT    543.07     0  02:47      1.95    0.26    0.67
  WS02006112WS02006115 CONDUIT    553.01     0  03:08      0.85    0.33    0.87
  WS02006113WS02006111 CONDUIT    561.97     0  02:00      2.47    0.67    0.46
  WS02006115WS02006116 CONDUIT    537.55     0  02:53      1.29    0.69    0.76
  WS02006116WS02004401 CONDUIT    540.07     0  02:46      1.21    0.74    0.84
  WS02006228WS02006109 CONDUIT    570.14     0  02:00      1.13    2.49    1.00
  WS02006229WS02006228 CONDUIT    566.77     0  02:00      1.13    1.88    1.00
  WS02006230WS02006229 CONDUIT    565.04     0  01:51      1.47   12.57    1.00
  WS02006231WS02006230 CONDUIT    590.37     0  01:50      1.65    8.96    1.00
  WS02006232WS02006231 CONDUIT    582.56     0  03:14      1.54    1.22    1.00
  WS02006234WS02006232 CONDUIT    582.20     0  03:14      1.51    1.18    1.00
  WS02006235WS02006234 CONDUIT    579.67     0  03:14      1.51    6.12    1.00
  WS02006238WS02006235 CONDUIT    426.07     0  03:08      1.45    0.95    1.00
  WS02006239WS02006238 CONDUIT    423.66     0  03:06      1.18    1.36    1.00
  WS02006240WS02006239 CONDUIT    431.08     0  05:23      1.28    1.36    1.00
  WS02006242WS02006240 CONDUIT    420.09     0  03:06      1.18    1.67    1.00
  WS02006243WS02006242 CONDUIT    420.17     0  03:06      1.43    0.90    1.00
  WS02006245WS02006243 CONDUIT    420.03     0  03:06      1.44    1.24    1.00
  WS02006247WS02006245 CONDUIT    419.00     0  03:15      1.43    3.32    1.00
  WS02006248WS02006247 CONDUIT    419.28     0  03:15      1.45    0.91    1.00
  WS02006249WS02006248 CONDUIT    419.86     0  03:11      1.37    2.30    1.00
  WS02006251WS02006249 CONDUIT    467.50     0  01:45      1.99    1.35    1.00
  WS02006252WS02006251 CONDUIT    406.60     0  01:50      5.69    1.49    1.00
  WS02006256WS02006235 CONDUIT    288.91     0  00:00      4.23    3.06    1.00
  WSF200WS02003060     CONDUIT    536.27     0  03:05      2.06    0.12    0.28
  YS02001580YS02001583 CONDUIT    126.50     0  01:54      0.69    0.49    1.00
  YS02001583YS02001586 CONDUIT    164.51     0  01:53      0.70    0.25    1.00
  YS02001586YS02001590 CONDUIT    318.01     0  02:00      1.27    0.56    1.00
  YS02001590YS02001593 CONDUIT    319.72     0  02:24      1.13    2.01    1.00
  YS02001593YS02001596 CONDUIT    318.12     0  02:09      1.77    0.50    1.00
  YS02001596YS02001600 CONDUIT    318.06     0  02:00      1.24    0.62    1.00
  YS02001600YS02001601 CONDUIT    318.66     0  02:00      1.13    0.55    1.00
  YS02001601YS02001602 CONDUIT    523.48     0  01:53      1.85    1.89    1.00
  YS02001602YS02001605 CONDUIT    523.62     0  01:53      1.85   11.08    1.00
  YS02001605YS02001607 CONDUIT    524.50     0  01:53      1.86    2.88    1.00
  YS02001607YS02001610 CONDUIT    527.36     0  01:53      0.67    0.50    1.00
  YS02001610YS02001613 CONDUIT    531.23     0  01:53      0.68    0.61    1.00
  YS02001613YS02001616 CONDUIT    535.19     0  01:53      0.69    0.46    1.00
  YS02001616YS02001619 CONDUIT    510.36     0  02:31      0.67    0.89    1.00
  YS02001619YS02001622 CONDUIT    961.97     0  02:01      1.22    1.42    1.00
  YS02001622YS02001625 CONDUIT    962.47     0  02:01      1.23    0.51    1.00
  YS02001625YS02001629 CONDUIT    947.70     0  02:24      1.21    0.45    1.00
  YS02001629YS02163301 CONDUIT    955.11     0  02:24      1.22    1.18    1.00
  YS02001633YS02163601 CONDUIT   1402.32     0  01:56      1.79    1.47    1.00
  YS02001641YS02001644 CONDUIT   1400.29     0  01:56      1.78    4.53    1.00
  YS02001644YS02001647 CONDUIT   1841.99     0  01:56      2.35    1.08    1.00
  YS02001647YS02001649 CONDUIT   1851.63     0  01:56      2.38    0.98    1.00
  YS02001649YS02001757 CONDUIT   2151.79     0  01:56      2.74    1.31    1.00
  YS02001652YS02001649 CONDUIT    956.85     0  02:00      1.22    0.47    1.00
  YS02001655YS02001652 CONDUIT    956.01     0  02:00      1.34    0.46    1.00
  YS02001658YS02001655 CONDUIT    954.90     0  02:00      1.93    0.41    1.00
  YS02001661YS02001658 CONDUIT    955.02     0  02:00      2.37    0.37    1.00
  YS02001664YS02001661 CONDUIT    954.07     0  02:00      2.41    0.30    0.90
  YS02001745YS02001748 CONDUIT    630.91     0  02:01      2.27    0.24    1.00
  YS02001748YS02001751 CONDUIT    629.97     0  02:01      1.78    0.32    1.00
  YS02001751YS02001754 CONDUIT    629.73     0  02:01      1.46    0.30    1.00
  YS02001754YS02001757 CONDUIT    629.54     0  02:01      0.80    0.25    1.00
  YS02001757CaochengTiaoxuchi CONDUIT   3519.60     0  02:02      5.98    1.52    1.00
  YS02001759YS02001757 CONDUIT   1439.25     0  02:01      1.83    1.02    1.00
  YS02001762YS02001759 CONDUIT    830.05     0  02:07      1.06    0.96    1.00
  YS02001765YS02001762 CONDUIT    829.52     0  02:07      1.06    0.78    1.00
  YS02001767YS02001765 CONDUIT    829.34     0  02:07      1.06    1.04    1.00
  YS02001770YS02001767 CONDUIT    827.89     0  02:07      1.05    3.28    1.00
  YS02001774YS02001770 CONDUIT    552.55     0  02:02      0.70    0.35    1.00
  YS02001779YS02001774 CONDUIT    553.13     0  02:02      0.70    0.28    1.00
  YS02001783YS02001784 CONDUIT   1180.93     0  02:00      2.35    1.63    1.00
  YS02001784YS02001785 CONDUIT   1183.77     0  02:00      2.36    2.75    1.00
  YS02001786YS02001788 CONDUIT   1187.22     0  02:00      2.52    2.29    0.89
  YS02001788YS02001790 CONDUIT   1181.43     0  02:00      2.74    0.87    0.84
  YS02001790YS02001791 CONDUIT   1293.62     0  02:03      3.42    1.41    0.71
  YS02001791YS02001793 CONDUIT   1251.96     0  02:01      6.78    0.54    0.43
  YS02001793JiankangQianchi CONDUIT   1401.47     0  02:01     14.65    0.11    0.50
  YS02001882YS02001884 CONDUIT     60.88     0  01:55      0.12    0.07    1.00
  YS02001884YS02001887 CONDUIT     74.22     0  01:55      0.09    0.10    1.00
  YS02001887YS02001890 CONDUIT    898.64     0  02:01      1.14    1.54    1.00
  YS02001890YS02001895 CONDUIT    517.92     0  02:07      0.66    0.24    1.00
  YS02001895YS02001898 CONDUIT    517.97     0  02:07      0.66    0.90    1.00
  YS02001898YS02001901 CONDUIT    517.53     0  02:05      0.66    0.33    1.00
  YS02001901YS02001904 CONDUIT    517.64     0  02:05      0.66    0.80    1.00
  YS02001904YS02001907 CONDUIT    522.22     0  02:00      0.66    0.18    1.00
  YS02001907YS02006553 CONDUIT    798.69     0  02:19      0.89    0.94    1.00
  YS02001910YS02001907 CONDUIT   1527.64     0  02:02      1.95    0.86    1.00
  YS02001915YS02001910 CONDUIT   1527.75     0  02:02      1.95    0.76    1.00
  YS02001918YS02001915 CONDUIT    510.78     0  02:02      0.65    0.28    1.00
  YS02001920YS02001918 CONDUIT    510.99     0  02:02      0.65    0.49    1.00
  YS02001923YS02001920 CONDUIT    508.13     0  02:02      0.69    0.23    1.00
  YS02001926YS02001923 CONDUIT    507.91     0  02:02      0.96    0.73    1.00
  YS02001929YS02001926 CONDUIT    506.81     0  02:02      1.13    0.24    1.00
  YS02006553YS02006556 CONDUIT    798.62     0  02:19      1.02    0.68    1.00
  YS02006556YS02006558 CONDUIT    799.13     0  02:19      1.02    0.63    1.00
  YS02006558YS02006561 CONDUIT   1176.30     0  02:00      4.16    2.60    1.00
  YS02006561YS02001783 CONDUIT   1181.85     0  02:00      2.35    0.61    1.00
  YS02163301YS02001633 CONDUIT    955.81     0  02:24      1.22    0.90    1.00
  YS02163601YS02164001 CONDUIT   1401.87     0  01:56      1.78    1.24    1.00
  YS02164001YS02001641 CONDUIT   1401.08     0  01:56      1.78    1.91    1.00
  CC-R1                PUMP       683.00     0  00:00              1.00
  CC-R2                PUMP       683.00     0  00:00              1.00
  CC-S1                PUMP       200.00     0  00:00              1.00
  CC-S2                PUMP       200.00     0  00:00              1.00
  JK-R1                PUMP      1000.00     0  00:00              1.00
  JK-R2                PUMP      1000.00     0  00:00              1.00
  JK-S                 PUMP       300.00     0  00:00              1.00
  
  
  ***************************
  Flow Classification Summary
  ***************************
  
  -------------------------------------------------------------------------------------
                      Adjusted    ---------- Fraction of Time in Flow Class ---------- 
                       /Actual         Up    Down  Sub   Sup   Up    Down  Norm  Inlet 
  Conduit               Length    Dry  Dry   Dry   Crit  Crit  Crit  Crit  Ltd   Ctrl  
  -------------------------------------------------------------------------------------
  1                       1.00   0.00  0.00  0.00  0.00  1.00  0.00  0.00  0.40  0.00
  WS02003060WS02003069    1.00   0.00  0.00  0.00  0.97  0.03  0.00  0.00  0.74  0.00
  WS02003066WSF200        1.00   0.05  0.00  0.00  0.00  0.95  0.00  0.00  0.81  0.00
  WS02003067WS02003066    1.00   0.05  0.00  0.00  0.95  0.00  0.00  0.00  0.00  0.00
  WS02003069WS02003072    1.00   0.00  0.00  0.00  0.99  0.01  0.00  0.00  0.75  0.00
  WS02003072WS02003073    1.00   0.00  0.00  0.00  0.00  0.00  0.00  1.00  0.00  0.00
  WS02004401WS02004402    1.00   0.02  0.00  0.00  0.98  0.00  0.00  0.00  0.00  0.00
  WS02004402WS02004403    1.00   0.02  0.00  0.00  0.98  0.00  0.00  0.00  0.00  0.00
  WS02004403WS02004404    1.00   0.00  0.03  0.00  0.97  0.00  0.00  0.00  0.00  0.00
  WS02004404WS02004405    1.00   0.00  0.00  0.00  1.00  0.00  0.00  0.00  0.01  0.00
  WS02004405WS02004406    1.00   0.00  0.00  0.00  1.00  0.00  0.00  0.00  0.00  0.00
  WS02004406WS02004407    1.00   0.00  0.03  0.00  0.97  0.00  0.00  0.00  0.00  0.00
  WS02004407WS02004409    1.00   0.03  0.00  0.00  0.95  0.01  0.00  0.00  0.95  0.00
  WS02004409WS02004410    1.00   0.03  0.00  0.00  0.96  0.00  0.00  0.00  0.00  0.00
  WS02004410WS02004411    1.00   0.04  0.00  0.00  0.96  0.00  0.00  0.00  0.00  0.00
  WS02004411WS02004412    1.00   0.04  0.00  0.00  0.96  0.00  0.00  0.00  0.00  0.00
  WS02004412WS02004413    1.00   0.04  0.00  0.00  0.96  0.00  0.00  0.00  0.00  0.00
  WS02004413WS02003067    1.00   0.04  0.01  0.00  0.00  0.00  0.95  0.00  0.00  0.00
  WS02006109WS02006110    1.00   0.00  0.01  0.00  0.98  0.00  0.01  0.00  0.00  0.00
  WS02006110WS02006113    1.00   0.01  0.01  0.00  0.98  0.00  0.00  0.00  0.00  0.00
  WS02006111WS02006112    1.00   0.02  0.00  0.00  0.98  0.00  0.00  0.00  0.98  0.00
  WS02006112WS02006115    1.00   0.02  0.00  0.00  0.97  0.00  0.00  0.00  0.00  0.00
  WS02006113WS02006111    1.00   0.02  0.00  0.00  0.00  0.98  0.00  0.00  0.13  0.00
  WS02006115WS02006116    1.00   0.02  0.00  0.00  0.97  0.00  0.00  0.01  0.00  0.00
  WS02006116WS02004401    1.00   0.02  0.00  0.00  0.98  0.00  0.00  0.00  0.00  0.00
  WS02006228WS02006109    1.00   0.00  0.00  0.00  1.00  0.00  0.00  0.00  0.00  0.00
  WS02006229WS02006228    1.00   0.00  0.00  0.00  0.99  0.00  0.00  0.01  0.00  0.00
  WS02006230WS02006229    1.00   0.00  0.00  0.00  0.99  0.00  0.00  0.01  0.02  0.00
  WS02006231WS02006230    1.00   0.00  0.00  0.00  0.26  0.00  0.74  0.00  0.00  0.00
  WS02006232WS02006231    1.00   0.00  0.00  0.00  0.98  0.00  0.02  0.00  0.00  0.00
  WS02006234WS02006232    1.00   0.00  0.00  0.00  1.00  0.00  0.00  0.00  0.07  0.00
  WS02006235WS02006234    1.00   0.00  0.00  0.00  0.91  0.00  0.09  0.00  0.00  0.00
  WS02006238WS02006235    1.00   0.00  0.00  0.00  1.00  0.00  0.00  0.00  0.00  0.00
  WS02006239WS02006238    1.00   0.00  0.00  0.00  1.00  0.00  0.00  0.00  0.22  0.00
  WS02006240WS02006239    1.00   0.00  0.00  0.00  0.66  0.00  0.00  0.34  0.05  0.00
  WS02006242WS02006240    1.00   0.00  0.00  0.00  0.99  0.00  0.00  0.00  0.03  0.00
  WS02006243WS02006242    1.00   0.00  0.00  0.00  0.99  0.00  0.00  0.01  0.63  0.00
  WS02006245WS02006243    1.00   0.00  0.00  0.00  0.51  0.00  0.00  0.49  0.02  0.00
  WS02006247WS02006245    1.00   0.00  0.00  0.00  0.99  0.00  0.00  0.01  0.00  0.00
  WS02006248WS02006247    1.00   0.00  0.00  0.00  0.99  0.00  0.00  0.01  0.19  0.00
  WS02006249WS02006248    1.00   0.00  0.00  0.00  0.34  0.00  0.66  0.00  0.00  0.00
  WS02006251WS02006249    1.00   0.00  0.00  0.00  1.00  0.00  0.00  0.00  0.67  0.00
  WS02006252WS02006251    1.00   0.00  0.71  0.00  0.17  0.00  0.12  0.00  0.22  0.00
  WS02006256WS02006235    1.00   0.00  0.00  0.00  0.98  0.02  0.00  0.00  0.00  0.00
  WSF200WS02003060        1.00   0.00  0.05  0.00  0.41  0.54  0.00  0.00  0.67  0.00
  YS02001580YS02001583    1.00   0.24  0.57  0.00  0.19  0.00  0.00  0.00  0.66  0.00
  YS02001583YS02001586    1.00   0.42  0.33  0.00  0.25  0.00  0.00  0.00  0.67  0.00
  YS02001586YS02001590    1.00   0.13  0.00  0.00  0.43  0.04  0.00  0.40  0.37  0.00
  YS02001590YS02001593    1.00   0.13  0.01  0.00  0.11  0.00  0.75  0.00  0.00  0.00
  YS02001593YS02001596    1.00   0.14  0.00  0.00  0.13  0.01  0.00  0.72  0.02  0.00
  YS02001596YS02001600    1.00   0.14  0.00  0.00  0.20  0.01  0.00  0.65  0.05  0.00
  YS02001600YS02001601    1.00   0.13  0.01  0.00  0.86  0.00  0.00  0.00  0.60  0.00
  YS02001601YS02001602    1.00   0.13  0.01  0.00  0.86  0.00  0.00  0.00  0.00  0.00
  YS02001602YS02001605    1.00   0.14  0.00  0.00  0.86  0.00  0.00  0.00  0.00  0.00
  YS02001605YS02001607    1.00   0.14  0.00  0.00  0.86  0.00  0.00  0.00  0.00  0.00
  YS02001607YS02001610    1.00   0.13  0.01  0.00  0.86  0.00  0.00  0.00  0.02  0.00
  YS02001610YS02001613    1.00   0.13  0.00  0.00  0.87  0.00  0.00  0.00  0.01  0.00
  YS02001613YS02001616    1.00   0.13  0.00  0.00  0.87  0.00  0.00  0.00  0.00  0.00
  YS02001616YS02001619    1.00   0.13  0.00  0.00  0.87  0.00  0.00  0.00  0.00  0.00
  YS02001619YS02001622    1.00   0.13  0.00  0.00  0.87  0.00  0.00  0.00  0.28  0.00
  YS02001622YS02001625    1.00   0.13  0.00  0.00  0.87  0.00  0.00  0.00  0.05  0.00
  YS02001625YS02001629    1.00   0.13  0.05  0.00  0.16  0.00  0.66  0.00  0.00  0.00
  YS02001629YS02163301    1.00   0.16  0.01  0.00  0.83  0.00  0.00  0.00  0.00  0.00
  YS02001633YS02163601    1.00   0.00  0.01  0.00  0.99  0.00  0.00  0.00  0.15  0.00
  YS02001641YS02001644    1.00   0.00  0.01  0.00  0.99  0.00  0.00  0.00  0.00  0.00
  YS02001644YS02001647    1.00   0.00  0.18  0.00  0.82  0.00  0.00  0.00  0.00  0.00
  YS02001647YS02001649    1.00   0.00  0.17  0.00  0.50  0.33  0.00  0.00  0.56  0.00
  YS02001649YS02001757    1.00   0.00  0.00  0.00  0.65  0.35  0.00  0.00  0.53  0.00
  YS02001652YS02001649    1.00   0.00  0.00  0.00  0.96  0.04  0.00  0.00  0.74  0.00
  YS02001655YS02001652    1.00   0.00  0.00  0.00  0.18  0.01  0.00  0.81  0.09  0.00
  YS02001658YS02001655    1.00   0.00  0.14  0.00  0.61  0.25  0.00  0.00  0.72  0.00
  YS02001661YS02001658    1.00   0.14  0.00  0.00  0.45  0.41  0.00  0.00  0.71  0.00
  YS02001664YS02001661    1.00   0.13  0.00  0.00  0.74  0.13  0.00  0.00  0.85  0.00
  YS02001745YS02001748    1.00   0.00  0.00  0.00  0.04  0.01  0.00  0.94  0.03  0.00
  YS02001748YS02001751    1.00   0.00  0.00  0.00  0.77  0.23  0.00  0.00  0.82  0.00
  YS02001751YS02001754    1.00   0.00  0.00  0.00  0.11  0.01  0.00  0.88  0.04  0.00
  YS02001754YS02001757    1.00   0.00  0.00  0.00  1.00  0.00  0.00  0.00  0.86  0.00
  YS02001757CaochengTiaoxuchi    1.00   0.00  0.00  0.00  0.80  0.20  0.00  0.00  0.79  0.00
  YS02001759YS02001757    1.00   0.00  0.00  0.00  1.00  0.00  0.00  0.00  0.62  0.00
  YS02001762YS02001759    1.00   0.00  0.00  0.00  1.00  0.00  0.00  0.00  0.04  0.00
  YS02001765YS02001762    1.00   0.00  0.00  0.00  1.00  0.00  0.00  0.00  0.74  0.00
  YS02001767YS02001765    1.00   0.00  0.00  0.00  1.00  0.00  0.00  0.00  0.00  0.00
  YS02001770YS02001767    1.00   0.00  0.00  0.00  1.00  0.00  0.00  0.00  0.00  0.00
  YS02001774YS02001770    1.00   0.00  0.13  0.00  0.70  0.00  0.16  0.00  0.03  0.00
  YS02001779YS02001774    1.00   0.00  0.00  0.00  1.00  0.00  0.00  0.00  0.79  0.00
  YS02001783YS02001784    1.00   0.00  0.18  0.00  0.82  0.00  0.00  0.00  0.55  0.00
  YS02001784YS02001785    1.00   0.00  0.00  0.00  1.00  0.00  0.00  0.00  0.17  0.00
  YS02001786YS02001788    1.00   0.00  0.00  0.00  0.80  0.20  0.00  0.00  0.00  0.00
  YS02001788YS02001790    1.00   0.00  0.00  0.00  0.22  0.78  0.00  0.00  0.81  0.00
  YS02001790YS02001791    1.00   0.00  0.00  0.00  0.01  0.99  0.00  0.00  0.16  0.00
  YS02001791YS02001793    1.00   0.00  0.00  0.00  0.00  1.00  0.00  0.00  0.01  0.00
  YS02001793JiankangQianchi    1.00   0.00  0.00  0.00  0.64  0.35  0.00  0.00  0.94  0.00
  YS02001882YS02001884    1.00   0.15  0.01  0.00  0.84  0.00  0.00  0.00  0.00  0.00
  YS02001884YS02001887    1.00   0.06  0.05  0.00  0.89  0.00  0.00  0.00  0.00  0.00
  YS02001887YS02001890    1.00   0.00  0.00  0.00  0.97  0.00  0.03  0.00  0.00  0.00
  YS02001890YS02001895    1.00   0.00  0.16  0.00  0.83  0.00  0.00  0.00  0.00  0.00
  YS02001895YS02001898    1.00   0.17  0.00  0.00  0.81  0.00  0.02  0.00  0.00  0.00
  YS02001898YS02001901    1.00   0.17  0.00  0.00  0.83  0.00  0.00  0.00  0.01  0.00
  YS02001901YS02001904    1.00   0.17  0.00  0.00  0.83  0.00  0.00  0.00  0.00  0.00
  YS02001904YS02001907    1.00   0.00  0.17  0.00  0.83  0.00  0.00  0.00  0.00  0.00
  YS02001907YS02006553    1.00   0.00  0.02  0.00  0.98  0.00  0.00  0.00  0.00  0.00
  YS02001910YS02001907    1.00   0.00  0.00  0.00  0.97  0.00  0.00  0.03  0.12  0.00
  YS02001915YS02001910    1.00   0.00  0.00  0.00  0.96  0.04  0.00  0.00  0.16  0.00
  YS02001918YS02001915    1.00   0.00  0.01  0.00  0.98  0.02  0.00  0.00  0.75  0.00
  YS02001920YS02001918    1.00   0.00  0.01  0.00  0.99  0.00  0.00  0.00  0.00  0.00
  YS02001923YS02001920    1.00   0.00  0.00  0.00  1.00  0.00  0.00  0.00  0.92  0.00
  YS02001926YS02001923    1.00   0.00  0.07  0.00  0.06  0.00  0.86  0.00  0.00  0.00
  YS02001929YS02001926    1.00   0.00  0.13  0.00  0.87  0.00  0.00  0.00  0.82  0.00
  YS02006553YS02006556    1.00   0.01  0.00  0.00  0.99  0.00  0.00  0.00  0.03  0.00
  YS02006556YS02006558    1.00   0.00  0.00  0.00  1.00  0.00  0.00  0.00  0.00  0.00
  YS02006558YS02006561    1.00   0.18  0.00  0.00  0.06  0.76  0.00  0.00  0.19  0.00
  YS02006561YS02001783    1.00   0.18  0.00  0.00  0.09  0.73  0.00  0.00  0.68  0.00
  YS02163301YS02001633    1.00   0.00  0.16  0.00  0.84  0.00  0.00  0.00  0.00  0.00
  YS02163601YS02164001    1.00   0.00  0.08  0.00  0.92  0.00  0.00  0.00  0.00  0.00
  YS02164001YS02001641    1.00   0.01  0.08  0.00  0.92  0.00  0.00  0.00  0.06  0.00
  
  
  *************************
  Conduit Surcharge Summary
  *************************
  
  ----------------------------------------------------------------------------
                                                           Hours        Hours 
                         --------- Hours Full --------   Above Full   Capacity
  Conduit                Both Ends  Upstream  Dnstream   Normal Flow   Limited
  ----------------------------------------------------------------------------
  WS02003072WS02003073        0.01      0.01      0.01      1.52         0.01
  WS02004404WS02004405        0.01      0.01      0.01      2.84         0.01
  WS02004405WS02004406        0.01      0.01      0.01      1.06         0.01
  WS02006109WS02006110        0.52      0.52      1.94      0.78         0.01
  WS02006110WS02006113        0.01      0.01      1.91      0.01         0.01
  WS02006111WS02006112        0.01      0.01      2.01      0.01         0.01
  WS02006112WS02006115        0.01      0.01      1.22      0.01         0.01
  WS02006228WS02006109        1.85      1.94      1.85      2.30         1.84
  WS02006229WS02006228        1.82      1.86      1.82      2.16         1.80
  WS02006230WS02006229        2.02      2.09      2.02      3.30         2.02
  WS02006231WS02006230        0.57      0.57      1.27      2.92         0.01
  WS02006232WS02006231        1.06      1.06      1.95      1.14         0.01
  WS02006234WS02006232        1.65      1.65      1.95      1.09         0.99
  WS02006235WS02006234        1.34      1.39      1.65      2.76         0.10
  WS02006238WS02006235        1.73      1.73      1.96      0.01         0.05
  WS02006239WS02006238        1.83      1.94      1.83      2.12         1.52
  WS02006240WS02006239        1.80      1.88      1.80      2.12         1.43
  WS02006242WS02006240        1.86      1.86      2.05      2.23         0.02
  WS02006243WS02006242        1.89      1.89      1.99      0.01         0.25
  WS02006245WS02006243        1.87      1.88      1.87      1.71         1.07
  WS02006247WS02006245        1.86      1.90      1.86      2.31         1.74
  WS02006248WS02006247        1.86      1.86      1.88      0.01         0.27
  WS02006249WS02006248        1.85      1.85      1.86      2.30         0.01
  WS02006251WS02006249        1.86      1.87      1.87      2.26         1.69
  WS02006252WS02006251        2.31      2.31      2.31      2.31         0.01
  WS02006256WS02006235        2.64      2.82      5.72      1.65         0.02
  YS02001580YS02001583        0.63      0.63      0.64      0.01         0.01
  YS02001583YS02001586        0.63      0.63      0.72      0.01         0.01
  YS02001586YS02001590        0.72      0.72      0.79      0.01         0.01
  YS02001590YS02001593        0.79      0.79      0.81      0.86         0.01
  YS02001593YS02001596        0.80      0.80      0.90      0.01         0.01
  YS02001596YS02001600        0.94      0.94      1.05      0.01         0.01
  YS02001600YS02001601        1.12      1.12      1.42      0.01         0.01
  YS02001601YS02001602        1.32      1.32      1.45      1.08         0.01
  YS02001602YS02001605        1.26      1.26      1.32      2.23         0.01
  YS02001605YS02001607        1.21      1.26      1.21      1.39         1.21
  YS02001607YS02001610        0.72      0.72      0.75      0.01         0.01
  YS02001610YS02001613        0.71      0.71      0.75      0.01         0.01
  YS02001613YS02001616        0.67      0.67      0.71      0.01         0.01
  YS02001616YS02001619        0.65      0.65      0.67      0.01         0.03
  YS02001619YS02001622        0.64      0.65      0.64      0.83         0.63
  YS02001622YS02001625        0.64      0.64      0.84      0.01         0.01
  YS02001625YS02001629        0.56      0.56      0.84      0.01         0.01
  YS02001629YS02163301        0.82      0.82      0.82      0.37         0.35
  YS02001633YS02163601        0.84      0.84      0.87      0.49         0.49
  YS02001641YS02001644        0.67      0.73      0.67      1.49         0.66
  YS02001644YS02001647        0.44      0.44      0.67      0.05         0.01
  YS02001647YS02001649        0.44      0.44      0.49      0.01         0.01
  YS02001649YS02001757        0.48      0.49      0.48      0.42         0.36
  YS02001652YS02001649        0.35      0.35      0.49      0.01         0.01
  YS02001655YS02001652        0.25      0.25      0.33      0.01         0.01
  YS02001658YS02001655        0.17      0.17      0.25      0.01         0.01
  YS02001661YS02001658        0.04      0.04      0.17      0.01         0.01
  YS02001664YS02001661        0.01      0.01      0.08      0.01         0.01
  YS02001745YS02001748        0.01      0.01      0.10      0.01         0.01
  YS02001748YS02001751        0.15      0.15      0.19      0.01         0.01
  YS02001751YS02001754        0.19      0.19      0.25      0.01         0.01
  YS02001754YS02001757        0.28      0.28      0.48      0.01         0.01
  YS02001757CaochengTiaoxuchi        0.10      0.48      0.51      0.49         0.06
  YS02001759YS02001757        0.41      0.41      0.48      0.04         0.07
  YS02001762YS02001759        0.38      0.38      0.41      0.01         0.03
  YS02001765YS02001762        0.35      0.35      0.38      0.01         0.01
  YS02001767YS02001765        0.33      0.33      0.35      0.02         0.05
  YS02001770YS02001767        0.33      0.34      0.33      0.60         0.33
  YS02001774YS02001770        0.32      0.32      0.38      0.01         0.01
  YS02001779YS02001774        0.28      0.28      0.38      0.01         0.01
  YS02001783YS02001784        0.52      0.55      0.52      0.69         0.52
  YS02001784YS02001785        0.42      0.52      0.42      0.91         0.42
  YS02001786YS02001788        0.01      0.42      0.01      0.78         0.01
  YS02001790YS02001791        0.01      0.01      0.01      0.51         0.01
  YS02001882YS02001884        0.50      0.50      0.51      0.01         0.01
  YS02001884YS02001887        0.53      0.53      0.54      0.01         0.01
  YS02001887YS02001890        0.55      0.55      0.57      0.14         0.01
  YS02001890YS02001895        0.49      0.49      0.58      0.01         0.01
  YS02001895YS02001898        0.48      0.48      0.49      0.01         0.01
  YS02001898YS02001901        0.49      0.49      0.53      0.01         0.01
  YS02001901YS02001904        0.52      0.52      0.53      0.01         0.01
  YS02001904YS02001907        0.52      0.52      0.77      0.01         0.01
  YS02001907YS02006553        0.92      0.92      0.99      0.01         0.01
  YS02001910YS02001907        0.58      0.58      0.75      0.01         0.01
  YS02001915YS02001910        0.49      0.49      0.58      0.01         0.01
  YS02001918YS02001915        0.41      0.41      0.49      0.01         0.01
  YS02001920YS02001918        0.41      0.41      0.42      0.01         0.01
  YS02001923YS02001920        0.37      0.37      0.42      0.01         0.01
  YS02001926YS02001923        0.13      0.13      0.15      0.01         0.01
  YS02001929YS02001926        0.01      0.01      0.15      0.01         0.01
  YS02006553YS02006556        0.66      0.66      0.77      0.01         0.01
  YS02006556YS02006558        0.72      0.72      0.79      0.01         0.01
  YS02006558YS02006561        0.45      0.65      0.45      0.87         0.45
  YS02006561YS02001783        0.38      0.38      0.55      0.01         0.01
  YS02163301YS02001633        0.82      0.82      0.87      0.01         0.02
  YS02163601YS02164001        0.75      0.75      0.87      0.30         0.01
  YS02164001YS02001641        0.73      0.75      0.73      0.75         0.56
  
  
  ***************
  Pumping Summary
  ***************
  
  ---------------------------------------------------------------------------------------------------------
                                                  Min       Avg       Max     Total     Power    % Time Off
                        Percent   Number of      Flow      Flow      Flow    Volume     Usage    Pump Curve
  Pump                 Utilized   Start-Ups       LPS       LPS       LPS  10^6 ltr     Kw-hr    Low   High
  ---------------------------------------------------------------------------------------------------------
  CC-R1                   24.52           2      0.00    683.00    683.00     4.773     80.54    0.0   73.6
  CC-R2                   24.52           2      0.00    683.00    683.00     4.773     80.54    0.0   73.6
  CC-S1                   29.24           3      0.00    200.00    200.00     1.667     12.52    0.0   30.1
  CC-S2                   29.24           3      0.00    200.00    200.00     1.667     12.52    0.0   30.1
  JK-R1                    4.31          56      0.00   1000.00   1000.00     1.227      3.90    0.0    0.0
  JK-R2                    4.31          56      0.00   1000.00   1000.00     1.227      3.90    0.0    0.0
  JK-S                    20.30          90      0.00    300.00    300.00     1.736     38.61    0.0    0.0
  

  Analysis begun on:  Tue Apr 22 10:17:09 2025
  Analysis ended on:  Tue Apr 22 10:17:10 2025
  Total elapsed time: 00:00:01