
  EPA STORM WATER MANAGEMENT MODEL - VERSION 5.2 (Build 5.2.4)
  PYSWMM TOOLKIT API - VERSION v1.0 (2023-11-27)
  ------------------------------------------------------------

  WARNING 04: minimum elevation drop used for Conduit WS02004404WS02004405
  WARNING 03: negative offset ignored for Link YS02001904YS02001907
  
  ****************
  Analysis Options
  ****************
  Flow Units ............... LPS
  Process Models:
    Rainfall/Runoff ........ YES
    RDII ................... NO
    Snowmelt ............... NO
    Groundwater ............ NO
    Flow Routing ........... YES
    Ponding Allowed ........ NO
    Water Quality .......... NO
  Infiltration Method ...... HORTON
  Flow Routing Method ...... DYNWAVE
  Surcharge Method ......... EXTRAN
  Starting Date ............ 08/28/2015 08:00:00
  Ending Date .............. 08/28/2015 16:00:00
  Antecedent Dry Days ...... 8.0
  Report Time Step ......... 00:01:00
  Wet Time Step ............ 00:01:00
  Dry Time Step ............ 00:01:00
  Routing Time Step ........ 30.00 sec
  Variable Time Step ....... YES
  Maximum Trials ........... 8
  Number of Threads ........ 4
  Head Tolerance ........... 0.001500 m
  
  
  **************************        Volume         Depth
  Runoff Quantity Continuity     hectare-m            mm
  **************************     ---------       -------
  Total Precipitation ......         2.305        69.496
  Evaporation Loss .........         0.000         0.000
  Infiltration Loss ........         0.101         3.059
  Surface Runoff ...........         2.171        65.452
  Final Storage ............         0.033         0.997
  Continuity Error (%) .....        -0.017
  
  
  **************************        Volume        Volume
  Flow Routing Continuity        hectare-m      10^6 ltr
  **************************     ---------     ---------
  Dry Weather Inflow .......         0.025         0.248
  Wet Weather Inflow .......         2.171        21.707
  Groundwater Inflow .......         0.000         0.000
  RDII Inflow ..............         0.000         0.000
  External Inflow ..........         0.083         0.825
  External Outflow .........         1.839        18.387
  Flooding Loss ............         0.626         6.262
  Evaporation Loss .........         0.000         0.000
  Exfiltration Loss ........         0.000         0.000
  Initial Stored Volume ....         0.243         2.431
  Final Stored Volume ......         0.065         0.654
  Continuity Error (%) .....        -0.368
  
  
  *************************
  Highest Continuity Errors
  *************************
  Node YS02001884 (5.24%)
  Node YS02001583 (-4.41%)
  Node WS02006256 (-3.45%)
  
  
  ***************************
  Time-Step Critical Elements
  ***************************
  Link WS02006238WS02006235 (28.78%)
  Link WS02004404WS02004405 (20.03%)
  Link WS02003066WSF200 (14.15%)
  Link YS02001791YS02001793 (7.74%)
  Link YS02006556YS02006558 (5.45%)
  
  
  ********************************
  Highest Flow Instability Indexes
  ********************************
  Link WS02006113WS02006111 (37)
  Link WS02006252WS02006251 (27)
  Link WS02006238WS02006235 (22)
  Link WS02006256WS02006235 (20)
  Link WS02006111WS02006112 (19)
  
  
  *********************************
  Most Frequent Nonconverging Nodes
  *********************************
  Node CC-1 (32.99%)
  Node CC-2 (32.99%)
  Node JK-1 (32.99%)
  Node JK-2 (32.99%)
  Node WSC (32.99%)
  
  
  *************************
  Routing Time Step Summary
  *************************
  Minimum Time Step           :     0.01 sec
  Average Time Step           :     2.87 sec
  Maximum Time Step           :     6.43 sec
  % of Time in Steady State   :     0.00
  Average Iterations per Step :     4.32
  % of Steps Not Converging   :    32.99
  Time Step Frequencies       :
     30.000 - 13.228 sec      :     0.00 %
     13.228 -  5.833 sec      :    12.43 %
      5.833 -  2.572 sec      :    34.75 %
      2.572 -  1.134 sec      :    35.55 %
      1.134 -  0.500 sec      :    17.27 %
  
  
  ***************************
  Subcatchment Runoff Summary
  ***************************
  
  ------------------------------------------------------------------------------------------------------------------------------
                            Total      Total      Total      Total     Imperv       Perv      Total       Total     Peak  Runoff
                           Precip      Runon       Evap      Infil     Runoff     Runoff     Runoff      Runoff   Runoff   Coeff
  Subcatchment                 mm         mm         mm         mm         mm         mm         mm    10^6 ltr      LPS
  ------------------------------------------------------------------------------------------------------------------------------
  sub60                     69.50       0.00       0.00       1.84      59.95       6.50      66.45        0.87   525.81   0.956
  sub61                     69.50       0.00       0.00       2.67      56.55       9.15      65.70        1.21   729.96   0.945
  sub62                     69.50       0.00       0.00       1.23      62.65       4.33      66.98        1.84  1033.53   0.964
  sub63                     69.50       0.00       0.00       4.92      48.37      15.24      63.61        1.44   827.18   0.915
  sub64                     69.50       0.00       0.00       2.49      57.86       7.94      65.80        1.58   846.92   0.947
  sub65                     69.50       0.00       0.00       2.15      59.20       6.88      66.09        1.82   950.82   0.951
  sub66                     69.50       0.00       0.00       6.07      48.26      14.08      62.34        2.91  1265.43   0.897
  sub67                     69.50       0.00       0.00       1.18      62.69       4.38      67.07        1.25   782.84   0.965
  sub68                     69.50       0.00       0.00       2.21      58.58       7.52      66.10        1.82  1058.81   0.951
  sub69                     69.50       0.00       0.00       1.98      58.96       8.45      67.40        2.50  1265.67   0.970
  sub70                     69.50       0.00       0.00       6.56      45.70      17.07      62.77        1.81   713.27   0.903
  sub71                     69.50       0.00       0.00       1.26      62.61       4.30      66.91        1.75   918.03   0.963
  sub72                     69.50       0.00       0.00       1.12      63.22       3.75      66.97        0.92   448.18   0.964
  
  
  ******************
  Node Depth Summary
  ******************
  
  ---------------------------------------------------------------------------------
                                 Average  Maximum  Maximum  Time of Max    Reported
                                   Depth    Depth      HGL   Occurrence   Max Depth
  Node                 Type       Meters   Meters   Meters  days hr:min      Meters
  ---------------------------------------------------------------------------------
  WS02003060           JUNCTION     0.23     0.38     5.31     0  03:11        0.38
  WS02003066           JUNCTION     0.19     0.30     5.85     0  03:11        0.30
  WS02003067           JUNCTION     0.48     0.70     6.02     0  03:11        0.70
  WS02003069           JUNCTION     0.25     0.43     5.01     0  03:12        0.43
  WS02003072           JUNCTION     0.31     0.50     4.87     0  03:12        0.50
  WS02003073           JUNCTION     0.18     0.30     4.36     0  03:13        0.30
  WS02004401           JUNCTION     0.59     0.85     6.85     0  03:06        0.85
  WS02004402           JUNCTION     0.62     0.88     6.84     0  03:09        0.88
  WS02004403           JUNCTION     0.64     0.89     6.82     0  03:07        0.89
  WS02004404           JUNCTION     0.71     0.96     6.81     0  03:07        0.96
  WS02004405           JUNCTION     0.70     0.96     6.81     0  03:07        0.96
  WS02004406           JUNCTION     0.71     0.96     6.79     0  03:07        0.96
  WS02004407           JUNCTION     0.17     0.30     6.61     0  03:07        0.30
  WS02004409           JUNCTION     0.39     0.67     6.44     0  03:10        0.67
  WS02004410           JUNCTION     0.41     0.68     6.40     0  03:10        0.68
  WS02004411           JUNCTION     0.43     0.69     6.37     0  03:10        0.69
  WS02004412           JUNCTION     0.44     0.70     6.34     0  03:10        0.70
  WS02004413           JUNCTION     0.60     0.86     6.33     0  03:10        0.86
  WS02006109           JUNCTION     0.67     1.31     7.92     0  01:48        1.02
  WS02006110           JUNCTION     0.67     1.38     7.96     0  01:48        1.00
  WS02006111           JUNCTION     0.18     0.29     6.99     0  03:06        0.29
  WS02006112           JUNCTION     0.75     1.10     6.99     0  03:15        1.05
  WS02006113           JUNCTION     0.28     0.46     7.35     0  02:55        0.46
  WS02006115           JUNCTION     0.48     0.75     6.89     0  03:06        0.75
  WS02006116           JUNCTION     0.56     0.83     6.87     0  03:06        0.83
  WS02006228           JUNCTION     0.67     1.42     8.07     0  02:44        1.29
  WS02006229           JUNCTION     0.65     1.49     8.18     0  02:44        1.33
  WS02006230           JUNCTION     0.67     1.79     8.54     0  02:44        1.25
  WS02006231           JUNCTION     0.46     2.24     9.36     0  02:09        2.24
  WS02006232           JUNCTION     0.60     2.16     9.20     0  02:24        1.98
  WS02006234           JUNCTION     0.54     1.96     9.12     0  01:50        1.96
  WS02006235           JUNCTION     0.58     2.00     9.16     0  02:01        2.00
  WS02006238           JUNCTION     0.61     2.15     9.29     0  02:31        2.15
  WS02006239           JUNCTION     0.58     2.03     9.24     0  02:08        2.03
  WS02006240           JUNCTION     0.55     1.87     9.16     0  02:08        1.87
  WS02006242           JUNCTION     0.62     1.55     8.82     0  01:47        1.55
  WS02006243           JUNCTION     0.54     1.48     8.90     0  02:08        1.46
  WS02006245           JUNCTION     0.54     1.42     8.90     0  02:36        1.35
  WS02006247           JUNCTION     0.56     1.43     8.93     0  02:13        1.43
  WS02006248           JUNCTION     0.53     1.10     8.69     0  01:45        1.10
  WS02006249           JUNCTION     0.55     1.09     8.69     0  01:44        1.09
  WS02006251           JUNCTION     0.55     1.53     9.20     0  01:45        1.53
  WS02006252           JUNCTION     0.35     1.50     9.74     0  00:00        1.11
  WS02006256           JUNCTION     1.16     2.35     9.28     0  00:00        2.35
  WSF200               JUNCTION     0.16     0.29     5.52     0  03:11        0.29
  YS02001580           JUNCTION     0.15     1.05     9.59     0  01:52        0.80
  YS02001583           JUNCTION     0.18     1.14     9.64     0  01:52        0.86
  YS02001586           JUNCTION     0.29     1.13     9.30     0  01:52        1.13
  YS02001590           JUNCTION     0.40     1.40     9.26     0  01:52        1.37
  YS02001593           JUNCTION     0.33     1.34     9.20     0  02:13        1.30
  YS02001596           JUNCTION     0.46     1.69     9.11     0  02:13        1.65
  YS02001600           JUNCTION     0.55     1.87     9.00     0  01:52        1.87
  YS02001601           JUNCTION     0.73     2.06     8.90     0  01:51        2.06
  YS02001602           JUNCTION     0.62     1.87     8.77     0  01:52        1.87
  YS02001605           JUNCTION     0.57     1.78     8.68     0  01:59        1.78
  YS02001607           JUNCTION     0.53     1.67     8.52     0  02:04        1.67
  YS02001610           JUNCTION     0.57     1.68     8.48     0  01:55        1.68
  YS02001613           JUNCTION     0.53     1.70     8.54     0  02:13        1.70
  YS02001616           JUNCTION     0.47     1.61     8.52     0  01:59        1.61
  YS02001619           JUNCTION     0.45     1.61     8.54     0  01:58        1.61
  YS02001622           JUNCTION     0.44     1.62     8.52     0  02:13        1.62
  YS02001625           JUNCTION     0.68     1.78     8.38     0  01:55        1.78
  YS02001629           JUNCTION     0.57     1.85     8.40     0  01:57        1.85
  YS02001633           JUNCTION     0.64     2.08     8.53     0  01:59        2.08
  YS02001641           JUNCTION     0.59     1.98     8.42     0  02:01        1.98
  YS02001644           JUNCTION     0.58     1.92     8.35     0  01:58        1.92
  YS02001647           JUNCTION     0.36     1.76     8.37     0  01:59        1.72
  YS02001649           JUNCTION     0.40     1.98     8.37     0  01:59        1.94
  YS02001652           JUNCTION     0.29     1.86     8.46     0  01:59        1.84
  YS02001655           JUNCTION     0.21     1.75     8.60     0  01:58        1.64
  YS02001658           JUNCTION     0.15     1.66     8.80     0  01:58        1.28
  YS02001661           JUNCTION     0.17     1.44     8.84     0  01:59        1.05
  YS02001664           JUNCTION     0.08     0.56     8.48     0  01:59        0.54
  YS02001745           JUNCTION     0.08     0.76     8.28     0  01:59        0.72
  YS02001748           JUNCTION     0.13     1.69     8.77     0  01:58        1.16
  YS02001751           JUNCTION     0.16     1.62     8.50     0  01:58        1.34
  YS02001754           JUNCTION     0.23     1.75     8.35     0  01:58        1.60
  YS02001757           JUNCTION     0.40     2.01     8.27     0  01:59        2.01
  YS02001759           JUNCTION     0.34     2.21     8.57     0  01:59        2.21
  YS02001762           JUNCTION     0.33     2.15     8.55     0  01:59        2.15
  YS02001765           JUNCTION     0.31     2.10     8.55     0  01:59        2.10
  YS02001767           JUNCTION     0.31     2.03     8.52     0  01:57        2.03
  YS02001770           JUNCTION     0.32     1.95     8.44     0  01:57        1.95
  YS02001774           JUNCTION     0.38     2.05     8.47     0  01:59        2.05
  YS02001779           JUNCTION     0.22     1.68     8.37     0  01:57        1.68
  YS02001783           JUNCTION     0.33     1.26     7.40     0  01:59        1.24
  YS02001784           JUNCTION     0.33     1.13     7.20     0  01:59        1.12
  YS02001786           JUNCTION     0.28     0.89     6.92     0  01:59        0.88
  YS02001788           JUNCTION     0.20     0.62     6.60     0  01:58        0.62
  YS02001790           JUNCTION     0.24     0.72     6.37     0  02:01        0.72
  YS02001791           JUNCTION     0.15     0.44     5.91     0  02:01        0.44
  YS02001793           JUNCTION     0.08     0.24     5.07     0  02:06        0.23
  YS02001882           JUNCTION     0.40     1.76     8.47     0  02:13        1.71
  YS02001884           JUNCTION     0.49     1.83     8.45     0  02:13        1.80
  YS02001887           JUNCTION     0.56     1.91     8.45     0  01:59        1.91
  YS02001890           JUNCTION     0.59     1.81     8.32     0  01:56        1.81
  YS02001895           JUNCTION     0.37     1.59     8.34     0  02:13        1.58
  YS02001898           JUNCTION     0.38     1.61     8.35     0  02:13        1.60
  YS02001901           JUNCTION     0.49     1.71     8.32     0  02:13        1.69
  YS02001904           JUNCTION     0.47     1.66     8.29     0  02:13        1.65
  YS02001907           JUNCTION     0.77     1.96     8.25     0  01:56        1.96
  YS02001910           JUNCTION     0.58     1.98     8.48     0  01:56        1.93
  YS02001915           JUNCTION     0.41     1.91     8.63     0  01:56        1.85
  YS02001918           JUNCTION     0.25     1.81     8.88     0  01:56        1.53
  YS02001920           JUNCTION     0.33     2.10     9.11     0  01:56        1.55
  YS02001923           JUNCTION     0.19     2.03     9.29     0  01:56        1.45
  YS02001926           JUNCTION     0.21     1.90     9.35     0  01:56        1.24
  YS02001929           JUNCTION     0.13     1.78     9.47     0  01:56        1.11
  YS02006553           JUNCTION     0.77     2.04     8.32     0  01:59        2.04
  YS02006556           JUNCTION     0.74     2.11     8.42     0  01:59        2.11
  YS02006558           JUNCTION     0.79     2.18     8.44     0  01:59        2.18
  YS02006561           JUNCTION     0.21     0.95     7.61     0  01:59        0.90
  YS02163301           JUNCTION     0.59     1.95     8.47     0  01:59        1.95
  YS02163601           JUNCTION     0.66     2.08     8.48     0  02:01        2.08
  YS02164001           JUNCTION     0.59     2.01     8.47     0  01:59        2.01
  CC-1                 OUTFALL      0.00     0.00     0.00     0  00:00        0.00
  CC-2                 OUTFALL      0.00     0.00     0.00     0  00:00        0.00
  JK-1                 OUTFALL      0.00     0.00     0.00     0  00:00        0.00
  JK-2                 OUTFALL      0.00     0.00     0.00     0  00:00        0.00
  WSC                  OUTFALL      0.17     0.30     0.97     0  03:13        0.30
  CC-storage           STORAGE      0.42     1.17     6.67     0  02:37        1.17
  JK-storage           STORAGE      0.20     2.99     3.79     0  00:00        0.68
  
  
  *******************
  Node Inflow Summary
  *******************
  
  -------------------------------------------------------------------------------------------------
                                  Maximum  Maximum                  Lateral       Total        Flow
                                  Lateral    Total  Time of Max      Inflow      Inflow     Balance
                                   Inflow   Inflow   Occurrence      Volume      Volume       Error
  Node                 Type           LPS      LPS  days hr:min    10^6 ltr    10^6 ltr     Percent
  -------------------------------------------------------------------------------------------------
  WS02003060           JUNCTION     16.53   552.50     0  03:11       0.471         5.2       0.039
  WS02003066           JUNCTION      0.00   535.91     0  03:11           0        4.73       0.032
  WS02003067           JUNCTION      0.00   535.90     0  03:11           0        4.74       0.087
  WS02003069           JUNCTION      0.32   552.77     0  03:12     0.00912        5.21       0.076
  WS02003072           JUNCTION      0.00   552.70     0  03:12           0        5.21       0.139
  WS02003073           JUNCTION      1.82   554.50     0  03:12      0.0519        5.25       0.106
  WS02004401           JUNCTION      0.00   538.51     0  03:11           0        4.84       0.212
  WS02004402           JUNCTION      0.00   536.86     0  03:11           0        4.83       0.215
  WS02004403           JUNCTION      0.00   536.84     0  03:11           0        4.82       0.210
  WS02004404           JUNCTION      0.16   536.53     0  03:07     0.00462        4.81       0.184
  WS02004405           JUNCTION      0.04   536.65     0  03:07     0.00109        4.81       0.252
  WS02004406           JUNCTION      0.00   536.66     0  03:07           0        4.79       0.437
  WS02004407           JUNCTION      0.00   536.42     0  03:07           0        4.77       0.021
  WS02004409           JUNCTION      0.00   536.30     0  03:07           0        4.77       0.055
  WS02004410           JUNCTION      0.00   536.03     0  03:08           0        4.77       0.094
  WS02004411           JUNCTION      0.00   535.95     0  03:09           0        4.76       0.117
  WS02004412           JUNCTION      0.00   535.94     0  03:10           0        4.76       0.156
  WS02004413           JUNCTION      0.00   535.94     0  03:10           0        4.75       0.289
  WS02006109           JUNCTION      1.23   561.92     0  02:41      0.0351        4.88       0.145
  WS02006110           JUNCTION      0.00   565.02     0  03:24           0        4.88       0.125
  WS02006111           JUNCTION      0.00   560.61     0  02:12           0        4.87       0.012
  WS02006112           JUNCTION      0.00   541.86     0  03:06           0        4.87       0.418
  WS02006113           JUNCTION      0.00   566.76     0  02:38           0        4.87       0.041
  WS02006115           JUNCTION      0.00   546.57     0  02:46           0        4.85       0.144
  WS02006116           JUNCTION      0.00   538.62     0  03:00           0        4.84       0.041
  WS02006228           JUNCTION      0.00   560.65     0  02:41           0        4.85       0.037
  WS02006229           JUNCTION      0.00   559.99     0  02:41           0        4.86       0.142
  WS02006230           JUNCTION     10.28   621.89     0  03:26       0.293        4.86       0.013
  WS02006231           JUNCTION      0.00   620.57     0  03:26           0        4.56      -0.141
  WS02006232           JUNCTION      0.00   615.03     0  03:26           0        4.58       0.353
  WS02006234           JUNCTION      0.00   594.86     0  01:45           0        4.55      -0.551
  WS02006235           JUNCTION      0.00   652.83     0  01:43           0         4.7       0.411
  WS02006238           JUNCTION      0.00   424.33     0  03:11           0        3.52      -0.157
  WS02006239           JUNCTION      0.00   423.45     0  03:11           0        3.43      -0.121
  WS02006240           JUNCTION      0.00   420.93     0  03:11           0        3.37       0.005
  WS02006242           JUNCTION      0.00   421.01     0  01:45           0        3.34       0.022
  WS02006243           JUNCTION      0.00   422.92     0  01:45           0        3.31      -0.078
  WS02006245           JUNCTION      0.00   423.15     0  01:45           0        3.32       0.344
  WS02006247           JUNCTION      0.00   424.12     0  01:45           0        3.32      -0.004
  WS02006248           JUNCTION      0.00   423.68     0  01:45           0        3.33       0.136
  WS02006249           JUNCTION      0.00   467.64     0  01:40           0        3.59       0.314
  WS02006251           JUNCTION      0.08   407.30     0  03:21     0.00219        3.59      -0.018
  WS02006252           JUNCTION      0.00   400.00     0  00:00           0        3.58      -0.033
  WS02006256           JUNCTION      0.00   322.41     0  01:59           0        1.84      -3.332
  WSF200               JUNCTION      0.00   535.92     0  03:11           0        4.73       0.008
  YS02001580           JUNCTION      0.00    83.71     0  01:52           0     0.00408      -0.994
  YS02001583           JUNCTION      0.00   146.49     0  01:52           0      0.0153      -4.228
  YS02001586           JUNCTION    713.27   713.27     0  02:04        1.81        1.82       0.066
  YS02001590           JUNCTION      0.00   320.89     0  02:13           0        1.43      -0.028
  YS02001593           JUNCTION      0.00   319.35     0  02:13           0        1.43       0.015
  YS02001596           JUNCTION      0.00   317.91     0  02:18           0        1.43       0.004
  YS02001600           JUNCTION      0.00   318.02     0  02:11           0        1.43       0.009
  YS02001601           JUNCTION   1265.67  1583.29     0  02:03        2.49        3.93       0.022
  YS02001602           JUNCTION      0.00   507.90     0  01:51           0        2.47       0.020
  YS02001605           JUNCTION      0.00   508.23     0  01:51           0        2.37       0.020
  YS02001607           JUNCTION      0.00   508.10     0  02:34           0        2.37       0.088
  YS02001610           JUNCTION      0.00   689.33     0  02:04           0        2.58       0.097
  YS02001613           JUNCTION      0.00   512.60     0  01:51           0        2.13       0.086
  YS02001616           JUNCTION      0.00   509.59     0  02:34           0        2.13       0.027
  YS02001619           JUNCTION   1265.43  1265.43     0  02:04        2.91        4.82       0.002
  YS02001622           JUNCTION      0.00   938.47     0  02:25           0        4.59       0.000
  YS02001625           JUNCTION      0.00  1307.31     0  02:04           0        4.76       0.191
  YS02001629           JUNCTION      0.00   939.04     0  02:25           0        3.97       0.022
  YS02001633           JUNCTION    951.02  1391.01     0  01:55        1.82        5.59       0.065
  YS02001641           JUNCTION      0.00  1389.87     0  01:55           0         5.4       0.057
  YS02001644           JUNCTION    846.96  1805.63     0  01:55        1.58        6.98       0.049
  YS02001647           JUNCTION      0.00  1805.24     0  01:56           0        6.72       0.009
  YS02001649           JUNCTION      0.00  2097.13     0  01:55           0        8.17       0.007
  YS02001652           JUNCTION      0.00   830.85     0  02:02           0        1.45      -0.077
  YS02001655           JUNCTION      0.15   830.67     0  02:02     0.00439        1.45       0.036
  YS02001658           JUNCTION      0.00   830.50     0  02:02           0        1.44      -0.018
  YS02001661           JUNCTION      0.00   842.44     0  02:00           0        1.44       0.017
  YS02001664           JUNCTION    827.18   827.18     0  02:02        1.44        1.44      -0.006
  YS02001745           JUNCTION    525.82   525.82     0  02:02       0.873       0.873       0.124
  YS02001748           JUNCTION      0.04   542.24     0  01:58     0.00128       0.873      -0.160
  YS02001751           JUNCTION      0.01   542.58     0  02:01    0.000313       0.877       0.055
  YS02001754           JUNCTION      0.26   542.73     0  02:01     0.00741       0.886      -0.085
  YS02001757           JUNCTION      0.00  3494.89     0  02:03           0          12       0.054
  YS02001759           JUNCTION    730.00  1410.08     0  02:01        1.21        2.95       0.002
  YS02001762           JUNCTION      0.00   827.22     0  02:06           0        1.75      -0.016
  YS02001765           JUNCTION      0.00   827.17     0  02:06           0        1.75      -0.009
  YS02001767           JUNCTION      0.54   826.59     0  02:06      0.0152        1.75       0.001
  YS02001770           JUNCTION   1033.69  1033.69     0  02:02        1.84        1.88       0.004
  YS02001774           JUNCTION      0.00   360.48     0  02:02           0       0.169       0.737
  YS02001779           JUNCTION      0.01   360.69     0  02:02    0.000142       0.125      -0.514
  YS02001783           JUNCTION      0.00  1163.75     0  02:00           0        4.39       0.006
  YS02001784           JUNCTION      1.06  1165.01     0  02:01      0.0302        4.42       0.012
  YS02001786           JUNCTION      0.06  1165.00     0  02:00      0.0016        4.42       0.016
  YS02001788           JUNCTION      0.07  1166.23     0  02:01     0.00202        4.42       0.006
  YS02001790           JUNCTION      0.15  1175.32     0  02:02     0.00442        4.42       0.018
  YS02001791           JUNCTION      0.00  1287.77     0  02:01           0        4.42      -0.022
  YS02001793           JUNCTION      0.00  1241.11     0  02:06           0        4.42      -0.013
  YS02001882           JUNCTION      0.00    37.83     0  01:53           0      0.0133       5.611
  YS02001884           JUNCTION      0.00    74.37     0  01:53           0      0.0494       5.534
  YS02001887           JUNCTION    783.29   785.61     0  02:01        1.26        1.29       0.346
  YS02001890           JUNCTION      0.00   786.26     0  02:01           0        1.25       0.415
  YS02001895           JUNCTION      0.00   518.28     0  02:06           0        1.16       0.151
  YS02001898           JUNCTION      0.00   517.32     0  02:02           0        1.16       0.011
  YS02001901           JUNCTION      0.00   517.33     0  02:06           0        1.16       0.290
  YS02001904           JUNCTION      0.00   517.92     0  02:04           0        1.16       0.245
  YS02001907           JUNCTION      0.00  1898.83     0  02:02           0        3.91       0.464
  YS02001910           JUNCTION      0.00  1382.34     0  02:02           0        2.75       0.267
  YS02001915           JUNCTION    918.05  1382.05     0  02:02        1.75        2.79       0.057
  YS02001918           JUNCTION      0.00   465.20     0  02:02           0        1.06       0.021
  YS02001920           JUNCTION      2.87   464.55     0  02:02      0.0818        1.05       0.108
  YS02001923           JUNCTION      0.04   460.51     0  02:02     0.00107        0.95      -0.038
  YS02001926           JUNCTION      0.05   459.71     0  02:02     0.00149       0.931       0.050
  YS02001929           JUNCTION    448.18   448.18     0  02:03       0.921       0.921      -0.082
  YS02006553           JUNCTION      0.00   794.07     0  02:20           0        2.59       0.459
  YS02006556           JUNCTION      0.00   794.23     0  02:20           0         2.6       0.317
  YS02006558           JUNCTION   1059.69  1164.61     0  02:00        1.84        4.42       0.076
  YS02006561           JUNCTION      0.00  1164.21     0  02:01           0        4.39      -0.000
  YS02163301           JUNCTION      0.00   940.19     0  02:25           0        3.96       0.046
  YS02163601           JUNCTION      0.11  1390.40     0  01:55     0.00313         5.4       0.097
  YS02164001           JUNCTION      0.00  1389.86     0  01:55           0         5.4       0.050
  CC-1                 OUTFALL       0.00   683.00     0  00:00           0        5.19       0.000
  CC-2                 OUTFALL       0.00   683.00     0  00:00           0        5.19       0.000
  JK-1                 OUTFALL       0.00  1000.00     0  00:00           0        1.38       0.000
  JK-2                 OUTFALL       0.00  1000.00     0  00:00           0        1.38       0.000
  WSC                  OUTFALL       0.00   554.46     0  03:13           0        5.24       0.000
  CC-storage           STORAGE       0.00  3494.28     0  02:03           0        14.2      -0.343
  JK-storage           STORAGE       0.00  1368.12     0  02:11           0        4.58      -0.442
  
  
  **********************
  Node Surcharge Summary
  **********************
  
  Surcharging occurs when water rises above the top of the highest conduit.
  ---------------------------------------------------------------------
                                               Max. Height   Min. Depth
                                   Hours       Above Crown    Below Rim
  Node                 Type      Surcharged         Meters       Meters
  ---------------------------------------------------------------------
  WS02006109           JUNCTION        1.98          0.485        1.335
  WS02006110           JUNCTION        0.53          0.468        1.382
  WS02006112           JUNCTION        1.35          0.103        1.577
  WS02006228           JUNCTION        1.96          0.588        1.612
  WS02006229           JUNCTION        2.00          0.690        1.760
  WS02006230           JUNCTION        0.62          0.714        0.856
  WS02006231           JUNCTION        1.16          1.530        0.000
  WS02006232           JUNCTION        2.11          1.460        0.020
  WS02006234           JUNCTION        1.53          1.240        0.000
  WS02006235           JUNCTION        1.78          1.290        0.000
  WS02006238           JUNCTION        1.97          1.430        0.000
  WS02006239           JUNCTION        1.92          1.290        0.000
  WS02006240           JUNCTION        2.00          1.161        0.229
  WS02006242           JUNCTION        2.17          0.820        0.000
  WS02006243           JUNCTION        2.02          0.770        0.000
  WS02006245           JUNCTION        2.02          0.709        0.141
  WS02006247           JUNCTION        2.05          0.717        0.043
  WS02006248           JUNCTION        2.00          0.380        0.000
  WS02006249           JUNCTION        2.03          0.390        0.000
  WS02006251           JUNCTION        1.51          0.498        0.682
  WS02006252           JUNCTION        2.49          1.100        0.000
  WS02006256           JUNCTION        5.99          2.050        0.000
  YS02001580           JUNCTION        0.69          0.450        0.000
  YS02001583           JUNCTION        0.70          0.500        0.000
  YS02001586           JUNCTION        0.80          0.510        0.000
  YS02001590           JUNCTION        0.89          0.750        0.000
  YS02001593           JUNCTION        0.89          0.718        0.122
  YS02001596           JUNCTION        1.01          0.961        0.109
  YS02001600           JUNCTION        1.21          1.190        0.000
  YS02001601           JUNCTION        1.56          1.440        0.000
  YS02001602           JUNCTION        1.46          1.270        0.000
  YS02001605           JUNCTION        1.41          1.180        0.000
  YS02001607           JUNCTION        0.81          0.667        0.013
  YS02001610           JUNCTION        0.85          0.680        0.000
  YS02001613           JUNCTION        0.80          0.700        0.000
  YS02001616           JUNCTION        0.75          0.610        0.000
  YS02001619           JUNCTION        0.74          0.610        0.000
  YS02001622           JUNCTION        0.73          0.620        0.000
  YS02001625           JUNCTION        0.95          0.780        0.000
  YS02001629           JUNCTION        0.63          0.470        0.000
  YS02001633           JUNCTION        0.96          1.060        0.000
  YS02001641           JUNCTION        0.82          0.981        0.119
  YS02001644           JUNCTION        0.75          0.920        0.000
  YS02001647           JUNCTION        0.48          0.757        0.143
  YS02001649           JUNCTION        0.55          0.978        0.072
  YS02001652           JUNCTION        0.36          0.833        0.297
  YS02001655           JUNCTION        0.27          0.749        0.451
  YS02001658           JUNCTION        0.17          0.661        0.639
  YS02001661           JUNCTION        0.01          0.366        1.024
  YS02001748           JUNCTION        0.08          0.610        0.580
  YS02001751           JUNCTION        0.19          0.618        0.582
  YS02001754           JUNCTION        0.27          0.695        0.455
  YS02001757           JUNCTION        0.55          1.008        0.202
  YS02001759           JUNCTION        0.47          1.210        0.000
  YS02001762           JUNCTION        0.44          1.150        0.000
  YS02001765           JUNCTION        0.39          1.100        0.000
  YS02001767           JUNCTION        0.36          1.030        0.000
  YS02001770           JUNCTION        0.35          0.920        0.000
  YS02001774           JUNCTION        0.44          1.050        0.000
  YS02001779           JUNCTION        0.29          0.680        0.000
  YS02001783           JUNCTION        0.60          0.462        1.138
  YS02001784           JUNCTION        0.58          0.335        1.155
  YS02001786           JUNCTION        0.45          0.091        1.339
  YS02001882           JUNCTION        0.54          0.758        0.072
  YS02001884           JUNCTION        0.55          0.772        0.098
  YS02001887           JUNCTION        0.59          0.862        0.088
  YS02001890           JUNCTION        0.61          0.760        0.000
  YS02001895           JUNCTION        0.53          0.589        0.161
  YS02001898           JUNCTION        0.52          0.581        0.159
  YS02001901           JUNCTION        0.58          0.714        0.156
  YS02001904           JUNCTION        0.56          0.658        0.192
  YS02001907           JUNCTION        0.85          0.950        0.000
  YS02001910           JUNCTION        0.64          0.975        0.125
  YS02001915           JUNCTION        0.54          0.914        0.086
  YS02001918           JUNCTION        0.44          0.810        0.000
  YS02001920           JUNCTION        0.46          1.099        0.041
  YS02001923           JUNCTION        0.10          0.820        0.000
  YS02001926           JUNCTION        0.14          0.900        0.000
  YS02001929           JUNCTION        0.01          0.780        0.000
  YS02006553           JUNCTION        0.87          1.039        0.151
  YS02006556           JUNCTION        0.74          1.067        0.283
  YS02006558           JUNCTION        0.73          1.076        0.324
  YS02006561           JUNCTION        0.41          0.145        1.005
  YS02163301           JUNCTION        0.93          0.955        0.075
  YS02163601           JUNCTION        0.99          1.080        0.000
  YS02164001           JUNCTION        0.84          1.011        0.089
  
  
  *********************
  Node Flooding Summary
  *********************
  
  Flooding refers to all water that overflows a node, whether it ponds or not.
  --------------------------------------------------------------------------
                                                             Total   Maximum
                                 Maximum   Time of Max       Flood    Ponded
                        Hours       Rate    Occurrence      Volume     Depth
  Node                 Flooded       LPS   days hr:min    10^6 ltr    Meters
  --------------------------------------------------------------------------
  WS02006231              0.01     79.78      0  02:09       0.000     0.000
  WS02006234              0.01    160.29      0  01:50       0.000     0.000
  WS02006235              0.01     86.96      0  02:01       0.000     0.000
  WS02006238              0.01     13.80      0  02:31       0.000     0.000
  WS02006239              0.01      7.26      0  02:08       0.000     0.000
  WS02006242              0.02     31.57      0  02:09       0.001     0.000
  WS02006243              0.01      3.61      0  02:08       0.000     0.000
  WS02006248              0.20     36.88      0  01:50       0.010     0.000
  WS02006249              1.35     94.69      0  01:45       0.242     0.000
  WS02006252              0.01    245.63      0  00:00       0.000     0.000
  WS02006256              1.70    304.11      0  01:59       0.641     0.000
  YS02001580              0.01     78.42      0  01:52       0.000     0.000
  YS02001583              0.01     78.54      0  01:52       0.000     0.000
  YS02001586              0.54    396.03      0  02:04       0.379     0.000
  YS02001590              0.01      3.13      0  01:52       0.000     0.000
  YS02001600              0.01      1.23      0  02:13       0.000     0.000
  YS02001601              0.71   1185.25      0  02:03       1.455     0.000
  YS02001602              0.52     61.99      0  02:19       0.106     0.000
  YS02001605              0.01      0.20      0  01:59       0.000     0.000
  YS02001610              0.46    688.90      0  02:04       0.671     0.000
  YS02001613              0.01      0.26      0  02:13       0.000     0.000
  YS02001616              0.01      0.96      0  01:59       0.000     0.000
  YS02001619              0.01      2.31      0  01:59       0.000     0.000
  YS02001622              0.01      0.08      0  02:13       0.000     0.000
  YS02001625              0.38   1307.03      0  02:04       0.971     0.000
  YS02001629              0.11    180.11      0  02:00       0.037     0.000
  YS02001633              0.01      0.88      0  01:59       0.000     0.000
  YS02001644              0.16    690.33      0  02:01       0.243     0.000
  YS02001759              0.01      1.35      0  01:59       0.000     0.000
  YS02001762              0.01      3.25      0  01:59       0.000     0.000
  YS02001765              0.01      4.49      0  01:59       0.000     0.000
  YS02001767              0.01     23.02      0  01:57       0.000     0.000
  YS02001770              0.01     31.83      0  01:57       0.000     0.000
  YS02001774              0.01      3.72      0  01:59       0.000     0.000
  YS02001779              0.14    360.56      0  02:02       0.106     0.000
  YS02001890              0.19    272.37      0  02:01       0.088     0.000
  YS02001907              0.39   1783.49      0  02:02       1.308     0.000
  YS02001918              0.01     68.85      0  01:56       0.001     0.000
  YS02001923              0.01     72.91      0  01:56       0.000     0.000
  YS02001926              0.01    136.75      0  01:56       0.001     0.000
  YS02001929              0.01    215.19      0  01:56       0.001     0.000
  YS02163601              0.01      0.19      0  02:01       0.000     0.000
  
  
  **********************
  Storage Volume Summary
  **********************
  
  ------------------------------------------------------------------------------------------------
                         Average    Avg   Evap  Exfil     Maximum    Max    Time of Max    Maximum
                          Volume   Pcnt   Pcnt   Pcnt      Volume   Pcnt     Occurrence    Outflow
  Storage Unit           1000 m³   Full   Loss   Loss     1000 m³   Full    days hr:min        LPS
  ------------------------------------------------------------------------------------------------
  CC-storage               1.178   18.4    0.0    0.0       3.268   51.0       0  02:37    1783.53
  JK-storage               0.010    3.4    0.0    0.0       0.150   51.6       0  00:00    2300.00
  
  
  ***********************
  Outfall Loading Summary
  ***********************
  
  -----------------------------------------------------------
                         Flow       Avg       Max       Total
                         Freq      Flow      Flow      Volume
  Outfall Node           Pcnt       LPS       LPS    10^6 ltr
  -----------------------------------------------------------
  CC-1                  46.31    683.00    683.00       5.195
  CC-2                  46.31    683.00    683.00       5.195
  JK-1                   8.65   1000.00   1000.00       1.376
  JK-2                   8.65   1000.00   1000.00       1.376
  WSC                   99.94    250.84    554.46       5.245
  -----------------------------------------------------------
  System                41.97   3616.84   3903.68      18.387
  
  
  ********************
  Link Flow Summary
  ********************
  
  -----------------------------------------------------------------------------
                                 Maximum  Time of Max   Maximum    Max/    Max/
                                  |Flow|   Occurrence   |Veloc|    Full    Full
  Link                 Type          LPS  days hr:min     m/sec    Flow   Depth
  -----------------------------------------------------------------------------
  1                    CONDUIT    554.46     0  03:13      2.83    0.19    0.30
  WS02003060WS02003069 CONDUIT    552.45     0  03:12      1.64    0.22    0.34
  WS02003066WSF200     CONDUIT    535.92     0  03:11      2.85    0.09    0.22
  WS02003067WS02003066 CONDUIT    535.91     0  03:11      1.21    0.17    0.42
  WS02003069WS02003072 CONDUIT    552.70     0  03:12      1.37    0.27    0.39
  WS02003072WS02003073 CONDUIT    552.68     0  03:12      1.43    1.19    0.37
  WS02004401WS02004402 CONDUIT    536.86     0  03:11      1.22    0.64    0.86
  WS02004402WS02004403 CONDUIT    536.84     0  03:11      1.24    0.77    0.88
  WS02004403WS02004404 CONDUIT    536.37     0  03:07      1.24    0.39    0.93
  WS02004404WS02004405 CONDUIT    536.61     0  03:07      1.45    5.26    0.96
  WS02004405WS02004406 CONDUIT    536.66     0  03:07      1.46    1.06    0.96
  WS02004406WS02004407 CONDUIT    536.42     0  03:07      1.04    0.24    0.63
  WS02004407WS02004409 CONDUIT    536.30     0  03:07      1.59    0.19    0.48
  WS02004409WS02004410 CONDUIT    536.03     0  03:08      1.06    0.69    0.67
  WS02004410WS02004411 CONDUIT    535.95     0  03:09      1.13    0.73    0.69
  WS02004411WS02004412 CONDUIT    535.94     0  03:10      1.20    0.76    0.69
  WS02004412WS02004413 CONDUIT    535.94     0  03:10      1.22    0.36    0.78
  WS02004413WS02003067 CONDUIT    535.90     0  03:11      1.11    0.23    0.59
  WS02006109WS02006110 CONDUIT    565.02     0  03:24      1.13    1.09    1.00
  WS02006110WS02006113 CONDUIT    566.76     0  02:38      1.36    0.52    0.79
  WS02006111WS02006112 CONDUIT    541.86     0  03:06      1.95    0.26    0.67
  WS02006112WS02006115 CONDUIT    546.57     0  02:46      0.85    0.32    0.87
  WS02006113WS02006111 CONDUIT    560.61     0  02:12      2.47    0.67    0.46
  WS02006115WS02006116 CONDUIT    538.62     0  03:00      1.29    0.69    0.76
  WS02006116WS02004401 CONDUIT    538.51     0  03:11      1.21    0.74    0.84
  WS02006228WS02006109 CONDUIT    560.69     0  02:41      1.12    2.45    1.00
  WS02006229WS02006228 CONDUIT    560.65     0  02:41      1.12    1.86    1.00
  WS02006230WS02006229 CONDUIT    559.99     0  02:41      1.46   12.46    1.00
  WS02006231WS02006230 CONDUIT    611.61     0  03:26      1.66    9.28    1.00
  WS02006232WS02006231 CONDUIT    620.57     0  03:26      1.62    1.30    1.00
  WS02006234WS02006232 CONDUIT    615.03     0  03:26      1.60    1.24    1.00
  WS02006235WS02006234 CONDUIT    594.86     0  01:45      1.60    6.28    1.00
  WS02006238WS02006235 CONDUIT    424.70     0  03:11      1.45    0.95    1.00
  WS02006239WS02006238 CONDUIT    424.33     0  03:11      1.14    1.36    1.00
  WS02006240WS02006239 CONDUIT    423.45     0  03:11      1.28    1.33    1.00
  WS02006242WS02006240 CONDUIT    420.93     0  03:11      1.16    1.67    1.00
  WS02006243WS02006242 CONDUIT    421.01     0  01:45      1.42    0.90    1.00
  WS02006245WS02006243 CONDUIT    422.92     0  01:45      1.45    1.25    1.00
  WS02006247WS02006245 CONDUIT    423.15     0  01:45      1.43    3.36    1.00
  WS02006248WS02006247 CONDUIT    424.12     0  01:45      1.43    0.92    1.00
  WS02006249WS02006248 CONDUIT    423.68     0  01:45      1.38    2.32    1.00
  WS02006251WS02006249 CONDUIT    467.64     0  01:40      1.99    1.35    1.00
  WS02006252WS02006251 CONDUIT    407.23     0  03:21      5.69    1.49    1.00
  WS02006256WS02006235 CONDUIT    288.91     0  00:00      4.23    3.06    1.00
  WSF200WS02003060     CONDUIT    535.97     0  03:11      2.06    0.12    0.28
  YS02001580YS02001583 CONDUIT     83.71     0  01:52      0.60    0.32    1.00
  YS02001583YS02001586 CONDUIT    146.49     0  01:52      0.60    0.22    1.00
  YS02001586YS02001590 CONDUIT    320.89     0  02:13      1.27    0.56    1.00
  YS02001590YS02001593 CONDUIT    319.35     0  02:13      1.13    2.00    1.00
  YS02001593YS02001596 CONDUIT    317.91     0  02:18      1.76    0.50    1.00
  YS02001596YS02001600 CONDUIT    318.02     0  02:11      1.24    0.62    1.00
  YS02001600YS02001601 CONDUIT    318.41     0  02:10      1.13    0.55    1.00
  YS02001601YS02001602 CONDUIT    507.90     0  01:51      1.80    1.83    1.00
  YS02001602YS02001605 CONDUIT    508.23     0  01:51      1.80   10.75    1.00
  YS02001605YS02001607 CONDUIT    508.10     0  02:34      1.80    2.79    1.00
  YS02001607YS02001610 CONDUIT    510.32     0  01:51      0.65    0.49    1.00
  YS02001610YS02001613 CONDUIT    512.60     0  01:51      0.65    0.59    1.00
  YS02001613YS02001616 CONDUIT    509.59     0  02:34      0.65    0.44    1.00
  YS02001616YS02001619 CONDUIT    509.61     0  02:34      0.67    0.88    1.00
  YS02001619YS02001622 CONDUIT    938.47     0  02:25      1.19    1.38    1.00
  YS02001622YS02001625 CONDUIT    938.80     0  02:25      1.20    0.50    1.00
  YS02001625YS02001629 CONDUIT    939.04     0  02:25      1.20    0.45    1.00
  YS02001629YS02163301 CONDUIT    940.19     0  02:25      1.20    1.16    1.00
  YS02001633YS02163601 CONDUIT   1390.29     0  01:55      1.77    1.46    1.00
  YS02001641YS02001644 CONDUIT   1389.43     0  01:55      1.77    4.49    1.00
  YS02001644YS02001647 CONDUIT   1805.24     0  01:56      2.31    1.06    1.00
  YS02001647YS02001649 CONDUIT   1817.28     0  01:56      2.37    0.96    1.00
  YS02001649YS02001757 CONDUIT   2071.78     0  01:55      2.65    1.26    1.00
  YS02001652YS02001649 CONDUIT    830.99     0  02:02      1.06    0.41    1.00
  YS02001655YS02001652 CONDUIT    830.85     0  02:02      1.32    0.40    1.00
  YS02001658YS02001655 CONDUIT    830.52     0  02:02      1.88    0.35    1.00
  YS02001661YS02001658 CONDUIT    830.50     0  02:02      2.32    0.33    1.00
  YS02001664YS02001661 CONDUIT    842.44     0  02:00      2.34    0.26    0.77
  YS02001745YS02001748 CONDUIT    542.20     0  01:58      2.20    0.21    0.88
  YS02001748YS02001751 CONDUIT    542.57     0  02:01      1.70    0.27    1.00
  YS02001751YS02001754 CONDUIT    542.47     0  02:01      1.43    0.26    1.00
  YS02001754YS02001757 CONDUIT    542.98     0  02:01      0.69    0.22    1.00
  YS02001757CaochengTiaoxuchi CONDUIT   3494.28     0  02:03      5.85    1.51    1.00
  YS02001759YS02001757 CONDUIT   1410.12     0  02:01      1.80    1.00    1.00
  YS02001762YS02001759 CONDUIT    827.96     0  02:06      1.05    0.95    1.00
  YS02001765YS02001762 CONDUIT    827.22     0  02:06      1.05    0.78    1.00
  YS02001767YS02001765 CONDUIT    827.17     0  02:06      1.05    1.04    1.00
  YS02001770YS02001767 CONDUIT    826.06     0  02:06      1.05    3.27    1.00
  YS02001774YS02001770 CONDUIT    360.48     0  02:02      0.46    0.23    1.00
  YS02001779YS02001774 CONDUIT    360.69     0  02:02      0.46    0.18    1.00
  YS02001783YS02001784 CONDUIT   1163.95     0  02:01      2.32    1.60    1.00
  YS02001784YS02001785 CONDUIT   1164.95     0  02:00      2.32    2.71    1.00
  YS02001786YS02001788 CONDUIT   1166.16     0  02:01      2.48    2.25    0.89
  YS02001788YS02001790 CONDUIT   1175.16     0  02:02      2.71    0.87    0.84
  YS02001790YS02001791 CONDUIT   1287.77     0  02:01      3.42    1.40    0.71
  YS02001791YS02001793 CONDUIT   1241.11     0  02:06      6.77    0.53    0.42
  YS02001793JiankangQianchi CONDUIT   1368.12     0  02:11     14.81    0.11    0.50
  YS02001882YS02001884 CONDUIT     37.83     0  01:53      0.15    0.04    1.00
  YS02001884YS02001887 CONDUIT     74.37     0  01:53      0.11    0.10    1.00
  YS02001887YS02001890 CONDUIT    786.26     0  02:01      1.00    1.35    1.00
  YS02001890YS02001895 CONDUIT    518.28     0  02:06      0.66    0.24    1.00
  YS02001895YS02001898 CONDUIT    517.32     0  02:02      0.66    0.90    1.00
  YS02001898YS02001901 CONDUIT    517.33     0  02:06      0.66    0.33    1.00
  YS02001901YS02001904 CONDUIT    517.92     0  02:04      0.66    0.80    1.00
  YS02001904YS02001907 CONDUIT    517.66     0  02:04      0.66    0.18    1.00
  YS02001907YS02006553 CONDUIT    794.07     0  02:20      0.88    0.93    1.00
  YS02001910YS02001907 CONDUIT   1382.25     0  02:02      1.76    0.78    1.00
  YS02001915YS02001910 CONDUIT   1382.34     0  02:02      1.76    0.69    1.00
  YS02001918YS02001915 CONDUIT    464.47     0  02:02      0.59    0.26    1.00
  YS02001920YS02001918 CONDUIT    465.20     0  02:02      0.64    0.45    1.00
  YS02001923YS02001920 CONDUIT    461.68     0  02:02      0.69    0.21    1.00
  YS02001926YS02001923 CONDUIT    460.47     0  02:02      0.95    0.66    1.00
  YS02001929YS02001926 CONDUIT    459.66     0  02:02      1.11    0.22    1.00
  YS02006553YS02006556 CONDUIT    794.23     0  02:20      1.01    0.68    1.00
  YS02006556YS02006558 CONDUIT    794.40     0  02:20      1.01    0.63    1.00
  YS02006558YS02006561 CONDUIT   1164.21     0  02:01      4.12    2.57    1.00
  YS02006561YS02001783 CONDUIT   1163.75     0  02:00      2.32    0.60    1.00
  YS02163301YS02001633 CONDUIT    940.56     0  02:24      1.20    0.88    1.00
  YS02163601YS02164001 CONDUIT   1389.86     0  01:55      1.77    1.23    1.00
  YS02164001YS02001641 CONDUIT   1389.87     0  01:55      1.77    1.90    1.00
  CC-R1                PUMP       683.00     0  00:00              1.00
  CC-R2                PUMP       683.00     0  00:00              1.00
  CC-S1                PUMP       200.00     0  00:00              1.00
  CC-S2                PUMP       200.00     0  00:00              1.00
  JK-R1                PUMP      1000.00     0  00:00              1.00
  JK-R2                PUMP      1000.00     0  00:00              1.00
  JK-S                 PUMP       300.00     0  00:00              1.00
  
  
  ***************************
  Flow Classification Summary
  ***************************
  
  -------------------------------------------------------------------------------------
                      Adjusted    ---------- Fraction of Time in Flow Class ---------- 
                       /Actual         Up    Down  Sub   Sup   Up    Down  Norm  Inlet 
  Conduit               Length    Dry  Dry   Dry   Crit  Crit  Crit  Crit  Ltd   Ctrl  
  -------------------------------------------------------------------------------------
  1                       1.00   0.00  0.00  0.00  0.00  1.00  0.00  0.00  0.45  0.00
  WS02003060WS02003069    1.00   0.00  0.00  0.00  0.97  0.03  0.00  0.00  0.72  0.00
  WS02003066WSF200        1.00   0.05  0.00  0.00  0.00  0.95  0.00  0.00  0.80  0.00
  WS02003067WS02003066    1.00   0.05  0.00  0.00  0.95  0.00  0.00  0.00  0.00  0.00
  WS02003069WS02003072    1.00   0.00  0.00  0.00  0.99  0.01  0.00  0.00  0.73  0.00
  WS02003072WS02003073    1.00   0.00  0.00  0.00  0.00  0.00  0.00  1.00  0.00  0.00
  WS02004401WS02004402    1.00   0.02  0.00  0.00  0.98  0.00  0.00  0.00  0.00  0.00
  WS02004402WS02004403    1.00   0.02  0.00  0.00  0.98  0.00  0.00  0.00  0.00  0.00
  WS02004403WS02004404    1.00   0.00  0.03  0.00  0.97  0.00  0.00  0.00  0.00  0.00
  WS02004404WS02004405    1.00   0.00  0.00  0.00  1.00  0.00  0.00  0.00  0.01  0.00
  WS02004405WS02004406    1.00   0.00  0.00  0.00  1.00  0.00  0.00  0.00  0.00  0.00
  WS02004406WS02004407    1.00   0.00  0.03  0.00  0.97  0.00  0.00  0.00  0.00  0.00
  WS02004407WS02004409    1.00   0.03  0.00  0.00  0.95  0.02  0.00  0.00  0.95  0.00
  WS02004409WS02004410    1.00   0.03  0.00  0.00  0.96  0.00  0.00  0.00  0.00  0.00
  WS02004410WS02004411    1.00   0.04  0.00  0.00  0.96  0.00  0.00  0.00  0.00  0.00
  WS02004411WS02004412    1.00   0.04  0.00  0.00  0.96  0.00  0.00  0.00  0.00  0.00
  WS02004412WS02004413    1.00   0.04  0.00  0.00  0.96  0.00  0.00  0.00  0.00  0.00
  WS02004413WS02003067    1.00   0.04  0.01  0.00  0.00  0.00  0.95  0.00  0.00  0.00
  WS02006109WS02006110    1.00   0.00  0.01  0.00  0.98  0.00  0.01  0.00  0.00  0.00
  WS02006110WS02006113    1.00   0.01  0.01  0.00  0.98  0.00  0.00  0.00  0.00  0.00
  WS02006111WS02006112    1.00   0.02  0.00  0.00  0.98  0.00  0.00  0.00  0.98  0.00
  WS02006112WS02006115    1.00   0.02  0.00  0.00  0.97  0.00  0.00  0.00  0.00  0.00
  WS02006113WS02006111    1.00   0.02  0.00  0.00  0.00  0.98  0.00  0.00  0.14  0.00
  WS02006115WS02006116    1.00   0.02  0.00  0.00  0.97  0.00  0.00  0.01  0.00  0.00
  WS02006116WS02004401    1.00   0.02  0.00  0.00  0.98  0.00  0.00  0.00  0.00  0.00
  WS02006228WS02006109    1.00   0.00  0.00  0.00  1.00  0.00  0.00  0.00  0.00  0.00
  WS02006229WS02006228    1.00   0.00  0.00  0.00  0.99  0.00  0.00  0.01  0.00  0.00
  WS02006230WS02006229    1.00   0.00  0.00  0.00  0.99  0.00  0.00  0.01  0.03  0.00
  WS02006231WS02006230    1.00   0.00  0.00  0.00  0.28  0.00  0.72  0.00  0.00  0.00
  WS02006232WS02006231    1.00   0.00  0.00  0.00  0.98  0.00  0.02  0.00  0.00  0.00
  WS02006234WS02006232    1.00   0.00  0.00  0.00  1.00  0.00  0.00  0.00  0.06  0.00
  WS02006235WS02006234    1.00   0.00  0.00  0.00  0.92  0.00  0.08  0.00  0.00  0.00
  WS02006238WS02006235    1.00   0.00  0.00  0.00  1.00  0.00  0.00  0.00  0.00  0.00
  WS02006239WS02006238    1.00   0.00  0.00  0.00  1.00  0.00  0.00  0.00  0.21  0.00
  WS02006240WS02006239    1.00   0.00  0.00  0.00  0.67  0.00  0.00  0.33  0.05  0.00
  WS02006242WS02006240    1.00   0.00  0.00  0.00  0.99  0.00  0.00  0.00  0.03  0.00
  WS02006243WS02006242    1.00   0.00  0.00  0.00  0.99  0.00  0.00  0.01  0.61  0.00
  WS02006245WS02006243    1.00   0.00  0.00  0.00  0.53  0.00  0.00  0.46  0.01  0.00
  WS02006247WS02006245    1.00   0.00  0.00  0.00  0.99  0.00  0.00  0.01  0.00  0.00
  WS02006248WS02006247    1.00   0.00  0.00  0.00  0.99  0.00  0.00  0.01  0.19  0.00
  WS02006249WS02006248    1.00   0.00  0.00  0.00  0.36  0.00  0.64  0.00  0.00  0.00
  WS02006251WS02006249    1.00   0.00  0.00  0.00  1.00  0.00  0.00  0.00  0.65  0.00
  WS02006252WS02006251    1.00   0.00  0.68  0.00  0.19  0.00  0.12  0.00  0.52  0.00
  WS02006256WS02006235    1.00   0.00  0.00  0.00  0.98  0.02  0.00  0.00  0.00  0.00
  WSF200WS02003060        1.00   0.00  0.05  0.00  0.40  0.55  0.00  0.00  0.65  0.00
  YS02001580YS02001583    1.00   0.23  0.56  0.00  0.20  0.00  0.00  0.00  0.66  0.00
  YS02001583YS02001586    1.00   0.41  0.33  0.00  0.26  0.00  0.00  0.00  0.66  0.00
  YS02001586YS02001590    1.00   0.13  0.00  0.00  0.44  0.04  0.00  0.39  0.37  0.00
  YS02001590YS02001593    1.00   0.13  0.01  0.00  0.13  0.00  0.74  0.00  0.00  0.00
  YS02001593YS02001596    1.00   0.13  0.00  0.00  0.15  0.01  0.00  0.70  0.02  0.00
  YS02001596YS02001600    1.00   0.14  0.00  0.00  0.22  0.01  0.00  0.64  0.04  0.00
  YS02001600YS02001601    1.00   0.13  0.01  0.00  0.86  0.00  0.00  0.00  0.59  0.00
  YS02001601YS02001602    1.00   0.13  0.01  0.00  0.87  0.00  0.00  0.00  0.00  0.00
  YS02001602YS02001605    1.00   0.13  0.00  0.00  0.86  0.00  0.00  0.00  0.00  0.00
  YS02001605YS02001607    1.00   0.14  0.00  0.00  0.86  0.00  0.00  0.00  0.00  0.00
  YS02001607YS02001610    1.00   0.13  0.01  0.00  0.86  0.00  0.00  0.00  0.01  0.00
  YS02001610YS02001613    1.00   0.13  0.00  0.00  0.87  0.00  0.00  0.00  0.00  0.00
  YS02001613YS02001616    1.00   0.13  0.00  0.00  0.87  0.00  0.00  0.00  0.00  0.00
  YS02001616YS02001619    1.00   0.13  0.00  0.00  0.87  0.00  0.00  0.00  0.00  0.00
  YS02001619YS02001622    1.00   0.13  0.00  0.00  0.87  0.00  0.00  0.00  0.27  0.00
  YS02001622YS02001625    1.00   0.13  0.00  0.00  0.87  0.00  0.00  0.00  0.04  0.00
  YS02001625YS02001629    1.00   0.13  0.04  0.00  0.18  0.00  0.65  0.00  0.00  0.00
  YS02001629YS02163301    1.00   0.15  0.01  0.00  0.84  0.00  0.00  0.00  0.00  0.00
  YS02001633YS02163601    1.00   0.00  0.01  0.00  0.99  0.00  0.00  0.00  0.15  0.00
  YS02001641YS02001644    1.00   0.00  0.01  0.00  0.99  0.00  0.00  0.00  0.00  0.00
  YS02001644YS02001647    1.00   0.00  0.17  0.00  0.83  0.00  0.00  0.00  0.00  0.00
  YS02001647YS02001649    1.00   0.00  0.17  0.00  0.51  0.32  0.00  0.00  0.56  0.00
  YS02001649YS02001757    1.00   0.00  0.00  0.00  0.64  0.36  0.00  0.00  0.50  0.00
  YS02001652YS02001649    1.00   0.00  0.00  0.00  0.97  0.03  0.00  0.00  0.73  0.00
  YS02001655YS02001652    1.00   0.00  0.00  0.00  0.20  0.01  0.00  0.79  0.09  0.00
  YS02001658YS02001655    1.00   0.00  0.14  0.00  0.62  0.24  0.00  0.00  0.72  0.00
  YS02001661YS02001658    1.00   0.14  0.00  0.00  0.45  0.41  0.00  0.00  0.71  0.00
  YS02001664YS02001661    1.00   0.13  0.00  0.00  0.71  0.16  0.00  0.00  0.85  0.00
  YS02001745YS02001748    1.00   0.00  0.00  0.00  0.05  0.01  0.00  0.94  0.03  0.00
  YS02001748YS02001751    1.00   0.00  0.00  0.00  0.77  0.23  0.00  0.00  0.81  0.00
  YS02001751YS02001754    1.00   0.00  0.00  0.00  0.13  0.01  0.00  0.86  0.04  0.00
  YS02001754YS02001757    1.00   0.00  0.00  0.00  1.00  0.00  0.00  0.00  0.84  0.00
  YS02001757CaochengTiaoxuchi    1.00   0.00  0.00  0.00  0.80  0.20  0.00  0.00  0.77  0.00
  YS02001759YS02001757    1.00   0.00  0.00  0.00  1.00  0.00  0.00  0.00  0.61  0.00
  YS02001762YS02001759    1.00   0.00  0.00  0.00  1.00  0.00  0.00  0.00  0.03  0.00
  YS02001765YS02001762    1.00   0.00  0.00  0.00  1.00  0.00  0.00  0.00  0.72  0.00
  YS02001767YS02001765    1.00   0.00  0.00  0.00  1.00  0.00  0.00  0.00  0.00  0.00
  YS02001770YS02001767    1.00   0.00  0.00  0.00  1.00  0.00  0.00  0.00  0.00  0.00
  YS02001774YS02001770    1.00   0.00  0.13  0.00  0.71  0.00  0.15  0.00  0.03  0.00
  YS02001779YS02001774    1.00   0.00  0.00  0.00  1.00  0.00  0.00  0.00  0.77  0.00
  YS02001783YS02001784    1.00   0.00  0.17  0.00  0.83  0.00  0.00  0.00  0.55  0.00
  YS02001784YS02001785    1.00   0.00  0.00  0.00  1.00  0.00  0.00  0.00  0.16  0.00
  YS02001786YS02001788    1.00   0.00  0.00  0.00  0.79  0.21  0.00  0.00  0.00  0.00
  YS02001788YS02001790    1.00   0.00  0.00  0.00  0.21  0.79  0.00  0.00  0.79  0.00
  YS02001790YS02001791    1.00   0.00  0.00  0.00  0.01  0.99  0.00  0.00  0.16  0.00
  YS02001791YS02001793    1.00   0.00  0.00  0.00  0.00  1.00  0.00  0.00  0.01  0.00
  YS02001793JiankangQianchi    1.00   0.00  0.00  0.00  0.63  0.37  0.00  0.00  0.94  0.00
  YS02001882YS02001884    1.00   0.15  0.01  0.00  0.84  0.00  0.00  0.00  0.00  0.00
  YS02001884YS02001887    1.00   0.06  0.05  0.00  0.89  0.00  0.00  0.00  0.00  0.00
  YS02001887YS02001890    1.00   0.00  0.00  0.00  0.97  0.00  0.03  0.00  0.00  0.00
  YS02001890YS02001895    1.00   0.00  0.16  0.00  0.84  0.00  0.00  0.00  0.00  0.00
  YS02001895YS02001898    1.00   0.16  0.00  0.00  0.82  0.00  0.02  0.00  0.00  0.00
  YS02001898YS02001901    1.00   0.16  0.00  0.00  0.84  0.00  0.00  0.00  0.01  0.00
  YS02001901YS02001904    1.00   0.16  0.00  0.00  0.84  0.00  0.00  0.00  0.00  0.00
  YS02001904YS02001907    1.00   0.00  0.16  0.00  0.84  0.00  0.00  0.00  0.00  0.00
  YS02001907YS02006553    1.00   0.00  0.02  0.00  0.98  0.00  0.00  0.00  0.00  0.00
  YS02001910YS02001907    1.00   0.00  0.00  0.00  0.97  0.00  0.00  0.03  0.12  0.00
  YS02001915YS02001910    1.00   0.00  0.00  0.00  0.97  0.03  0.00  0.00  0.14  0.00
  YS02001918YS02001915    1.00   0.00  0.01  0.00  0.98  0.02  0.00  0.00  0.73  0.00
  YS02001920YS02001918    1.00   0.00  0.01  0.00  0.99  0.00  0.00  0.00  0.00  0.00
  YS02001923YS02001920    1.00   0.00  0.00  0.00  1.00  0.00  0.00  0.00  0.91  0.00
  YS02001926YS02001923    1.00   0.00  0.07  0.00  0.07  0.00  0.86  0.00  0.00  0.00
  YS02001929YS02001926    1.00   0.00  0.13  0.00  0.87  0.00  0.00  0.00  0.81  0.00
  YS02006553YS02006556    1.00   0.01  0.00  0.00  0.99  0.00  0.00  0.00  0.03  0.00
  YS02006556YS02006558    1.00   0.00  0.00  0.00  1.00  0.00  0.00  0.00  0.00  0.00
  YS02006558YS02006561    1.00   0.17  0.00  0.00  0.06  0.76  0.00  0.00  0.19  0.00
  YS02006561YS02001783    1.00   0.17  0.00  0.00  0.10  0.73  0.00  0.00  0.67  0.00
  YS02163301YS02001633    1.00   0.00  0.15  0.00  0.85  0.00  0.00  0.00  0.00  0.00
  YS02163601YS02164001    1.00   0.00  0.08  0.00  0.92  0.00  0.00  0.00  0.00  0.00
  YS02164001YS02001641    1.00   0.01  0.08  0.00  0.92  0.00  0.00  0.00  0.05  0.00
  
  
  *************************
  Conduit Surcharge Summary
  *************************
  
  ----------------------------------------------------------------------------
                                                           Hours        Hours 
                         --------- Hours Full --------   Above Full   Capacity
  Conduit                Both Ends  Upstream  Dnstream   Normal Flow   Limited
  ----------------------------------------------------------------------------
  WS02003072WS02003073        0.01      0.01      0.01      1.70         0.01
  WS02004404WS02004405        0.01      0.01      0.01      3.01         0.01
  WS02004405WS02004406        0.01      0.01      0.01      1.19         0.01
  WS02006109WS02006110        0.52      0.52      2.09      0.83         0.01
  WS02006110WS02006113        0.01      0.01      2.05      0.01         0.01
  WS02006111WS02006112        0.01      0.01      2.18      0.01         0.01
  WS02006112WS02006115        0.01      0.01      1.35      0.01         0.01
  WS02006228WS02006109        1.98      2.08      1.98      2.48         1.97
  WS02006229WS02006228        1.96      2.00      1.96      2.33         1.93
  WS02006230WS02006229        2.20      2.27      2.20      3.44         2.20
  WS02006231WS02006230        0.61      0.61      1.39      3.08         0.01
  WS02006232WS02006231        1.15      1.15      2.11      1.24         0.01
  WS02006234WS02006232        1.74      1.74      2.11      1.19         1.06
  WS02006235WS02006234        1.47      1.53      1.76      2.91         0.11
  WS02006238WS02006235        1.83      1.84      2.13      0.01         0.05
  WS02006239WS02006238        1.96      2.11      1.96      2.28         1.61
  WS02006240WS02006239        1.91      2.02      1.92      2.29         1.48
  WS02006242WS02006240        2.00      2.00      2.22      2.40         0.03
  WS02006243WS02006242        2.04      2.04      2.17      0.01         0.28
  WS02006245WS02006243        2.02      2.04      2.02      1.86         1.16
  WS02006247WS02006245        2.02      2.07      2.02      2.49         1.88
  WS02006248WS02006247        2.02      2.02      2.05      0.01         0.31
  WS02006249WS02006248        1.99      2.00      2.03      2.47         0.01
  WS02006251WS02006249        2.03      2.04      2.03      2.44         1.83
  WS02006252WS02006251        2.49      2.49      2.49      2.49         0.01
  WS02006256WS02006235        2.78      2.98      5.80      1.74         0.02
  YS02001580YS02001583        0.69      0.69      0.72      0.01         0.01
  YS02001583YS02001586        0.70      0.70      0.80      0.01         0.01
  YS02001586YS02001590        0.81      0.81      0.89      0.01         0.01
  YS02001590YS02001593        0.89      0.89      0.91      0.97         0.01
  YS02001593YS02001596        0.90      0.90      1.01      0.01         0.01
  YS02001596YS02001600        1.07      1.07      1.21      0.01         0.01
  YS02001600YS02001601        1.30      1.30      1.56      0.01         0.01
  YS02001601YS02001602        1.46      1.46      1.60      1.25         0.01
  YS02001602YS02001605        1.41      1.41      1.46      2.36         0.01
  YS02001605YS02001607        1.37      1.41      1.37      1.53         1.37
  YS02001607YS02001610        0.81      0.81      0.85      0.01         0.01
  YS02001610YS02001613        0.80      0.80      0.85      0.01         0.01
  YS02001613YS02001616        0.75      0.75      0.80      0.01         0.01
  YS02001616YS02001619        0.74      0.74      0.75      0.01         0.02
  YS02001619YS02001622        0.73      0.74      0.73      0.94         0.71
  YS02001622YS02001625        0.73      0.73      0.95      0.01         0.01
  YS02001625YS02001629        0.63      0.63      0.95      0.01         0.01
  YS02001629YS02163301        0.93      0.93      0.93      0.43         0.41
  YS02001633YS02163601        0.96      0.96      0.99      0.58         0.57
  YS02001641YS02001644        0.75      0.82      0.75      1.63         0.75
  YS02001644YS02001647        0.48      0.48      0.75      0.05         0.01
  YS02001647YS02001649        0.48      0.48      0.55      0.01         0.01
  YS02001649YS02001757        0.54      0.55      0.55      0.48         0.41
  YS02001652YS02001649        0.39      0.39      0.55      0.01         0.01
  YS02001655YS02001652        0.27      0.27      0.36      0.01         0.01
  YS02001658YS02001655        0.17      0.17      0.27      0.01         0.01
  YS02001661YS02001658        0.01      0.01      0.17      0.01         0.01
  YS02001664YS02001661        0.01      0.01      0.06      0.01         0.01
  YS02001745YS02001748        0.01      0.01      0.08      0.01         0.01
  YS02001748YS02001751        0.14      0.14      0.19      0.01         0.01
  YS02001751YS02001754        0.19      0.19      0.27      0.01         0.01
  YS02001754YS02001757        0.29      0.29      0.55      0.01         0.01
  YS02001757CaochengTiaoxuchi        0.16      0.55      0.64      0.53         0.10
  YS02001759YS02001757        0.47      0.47      0.55      0.01         0.05
  YS02001762YS02001759        0.44      0.44      0.47      0.01         0.03
  YS02001765YS02001762        0.39      0.39      0.44      0.01         0.01
  YS02001767YS02001765        0.36      0.36      0.39      0.02         0.06
  YS02001770YS02001767        0.36      0.37      0.36      0.64         0.35
  YS02001774YS02001770        0.35      0.35      0.44      0.01         0.01
  YS02001779YS02001774        0.29      0.29      0.44      0.01         0.01
  YS02001783YS02001784        0.57      0.60      0.57      0.77         0.57
  YS02001784YS02001785        0.45      0.57      0.45      1.05         0.45
  YS02001786YS02001788        0.01      0.45      0.01      0.91         0.01
  YS02001790YS02001791        0.01      0.01      0.01      0.56         0.01
  YS02001882YS02001884        0.54      0.54      0.55      0.01         0.01
  YS02001884YS02001887        0.58      0.58      0.59      0.01         0.01
  YS02001887YS02001890        0.61      0.61      0.62      0.12         0.01
  YS02001890YS02001895        0.53      0.53      0.64      0.01         0.01
  YS02001895YS02001898        0.52      0.52      0.53      0.01         0.01
  YS02001898YS02001901        0.53      0.53      0.58      0.01         0.01
  YS02001901YS02001904        0.56      0.56      0.58      0.01         0.01
  YS02001904YS02001907        0.56      0.56      0.88      0.01         0.01
  YS02001907YS02006553        1.07      1.07      1.16      0.01         0.01
  YS02001910YS02001907        0.64      0.64      0.85      0.01         0.01
  YS02001915YS02001910        0.54      0.54      0.64      0.01         0.01
  YS02001918YS02001915        0.44      0.44      0.54      0.01         0.01
  YS02001920YS02001918        0.44      0.44      0.46      0.01         0.01
  YS02001923YS02001920        0.39      0.39      0.46      0.01         0.01
  YS02001926YS02001923        0.10      0.10      0.14      0.01         0.01
  YS02001929YS02001926        0.01      0.01      0.14      0.01         0.01
  YS02006553YS02006556        0.74      0.74      0.87      0.01         0.01
  YS02006556YS02006558        0.81      0.81      0.89      0.01         0.01
  YS02006558YS02006561        0.48      0.73      0.48      1.00         0.48
  YS02006561YS02001783        0.41      0.41      0.60      0.01         0.01
  YS02163301YS02001633        0.93      0.93      0.98      0.01         0.02
  YS02163601YS02164001        0.84      0.84      0.99      0.35         0.01
  YS02164001YS02001641        0.82      0.84      0.82      0.87         0.65
  
  
  ***************
  Pumping Summary
  ***************
  
  ---------------------------------------------------------------------------------------------------------
                                                  Min       Avg       Max     Total     Power    % Time Off
                        Percent   Number of      Flow      Flow      Flow    Volume     Usage    Pump Curve
  Pump                 Utilized   Start-Ups       LPS       LPS       LPS  10^6 ltr     Kw-hr    Low   High
  ---------------------------------------------------------------------------------------------------------
  CC-R1                   26.68           2      0.00    683.00    683.00     5.193     87.87    0.0   69.6
  CC-R2                   26.68           2      0.00    683.00    683.00     5.193     87.87    0.0   69.6
  CC-S1                   31.42           3      0.00    200.00    200.00     1.791     13.36    0.0   30.8
  CC-S2                   31.42           3      0.00    200.00    200.00     1.791     13.36    0.0   30.8
  JK-R1                    4.89          64      0.00   1000.00   1000.00     1.392      4.39    0.0    0.0
  JK-R2                    4.89          64      0.00   1000.00   1000.00     1.392      4.39    0.0    0.0
  JK-S                    21.47          97      0.00    300.00    300.00     1.835     40.83    0.0    0.0
  

  Analysis begun on:  Tue Apr 22 10:17:35 2025
  Analysis ended on:  Tue Apr 22 10:17:37 2025
  Total elapsed time: 00:00:02