
  EPA STORM WATER MANAGEMENT MODEL - VERSION 5.2 (Build 5.2.4)
  PYSWMM TOOLKIT API - VERSION v1.0 (2023-11-27)
  ------------------------------------------------------------

  WARNING 04: minimum elevation drop used for Conduit WS02004404WS02004405
  WARNING 03: negative offset ignored for Link YS02001904YS02001907
  
  ****************
  Analysis Options
  ****************
  Flow Units ............... LPS
  Process Models:
    Rainfall/Runoff ........ YES
    RDII ................... NO
    Snowmelt ............... NO
    Groundwater ............ NO
    Flow Routing ........... YES
    Ponding Allowed ........ NO
    Water Quality .......... NO
  Infiltration Method ...... HORTON
  Flow Routing Method ...... DYNWAVE
  Surcharge Method ......... EXTRAN
  Starting Date ............ 08/28/2015 08:00:00
  Ending Date .............. 08/28/2015 16:00:00
  Antecedent Dry Days ...... 8.0
  Report Time Step ......... 00:01:00
  Wet Time Step ............ 00:01:00
  Dry Time Step ............ 00:01:00
  Routing Time Step ........ 30.00 sec
  Variable Time Step ....... YES
  Maximum Trials ........... 8
  Number of Threads ........ 4
  Head Tolerance ........... 0.001500 m
  
  
  **************************        Volume         Depth
  Runoff Quantity Continuity     hectare-m            mm
  **************************     ---------       -------
  Total Precipitation ......         2.689        81.080
  Evaporation Loss .........         0.000         0.000
  Infiltration Loss ........         0.100         3.015
  Surface Runoff ...........         2.557        77.091
  Final Storage ............         0.033         0.996
  Continuity Error (%) .....        -0.028
  
  
  **************************        Volume        Volume
  Flow Routing Continuity        hectare-m      10^6 ltr
  **************************     ---------     ---------
  Dry Weather Inflow .......         0.025         0.248
  Wet Weather Inflow .......         2.556        25.565
  Groundwater Inflow .......         0.000         0.000
  RDII Inflow ..............         0.000         0.000
  External Inflow ..........         0.083         0.825
  External Outflow .........         1.865        18.649
  Flooding Loss ............         0.986         9.865
  Evaporation Loss .........         0.000         0.000
  Exfiltration Loss ........         0.000         0.000
  Initial Stored Volume ....         0.243         2.431
  Final Stored Volume ......         0.066         0.656
  Continuity Error (%) .....        -0.348
  
  
  *************************
  Highest Continuity Errors
  *************************
  Node YS02001583 (-7.64%)
  Node YS02001884 (4.93%)
  Node WS02006256 (-3.55%)
  
  
  ***************************
  Time-Step Critical Elements
  ***************************
  Link WS02006238WS02006235 (27.96%)
  Link WS02004404WS02004405 (20.28%)
  Link WS02003066WSF200 (14.15%)
  Link YS02001791YS02001793 (7.19%)
  Link YS02001793JiankangQianchi (4.66%)
  
  
  ********************************
  Highest Flow Instability Indexes
  ********************************
  Link WS02006113WS02006111 (37)
  Link WS02006252WS02006251 (34)
  Link WS02006238WS02006235 (22)
  Link WS02006256WS02006235 (21)
  Link YS02001602YS02001605 (20)
  
  
  *********************************
  Most Frequent Nonconverging Nodes
  *********************************
  Node CC-1 (33.52%)
  Node CC-2 (33.52%)
  Node JK-1 (33.52%)
  Node JK-2 (33.52%)
  Node WSC (33.52%)
  
  
  *************************
  Routing Time Step Summary
  *************************
  Minimum Time Step           :     0.00 sec
  Average Time Step           :     2.86 sec
  Maximum Time Step           :     6.43 sec
  % of Time in Steady State   :     0.00
  Average Iterations per Step :     4.39
  % of Steps Not Converging   :    33.52
  Time Step Frequencies       :
     30.000 - 13.228 sec      :     0.00 %
     13.228 -  5.833 sec      :    11.90 %
      5.833 -  2.572 sec      :    35.03 %
      2.572 -  1.134 sec      :    36.46 %
      1.134 -  0.500 sec      :    16.60 %
  
  
  ***************************
  Subcatchment Runoff Summary
  ***************************
  
  ------------------------------------------------------------------------------------------------------------------------------
                            Total      Total      Total      Total     Imperv       Perv      Total       Total     Peak  Runoff
                           Precip      Runon       Evap      Infil     Runoff     Runoff     Runoff      Runoff   Runoff   Coeff
  Subcatchment                 mm         mm         mm         mm         mm         mm         mm    10^6 ltr      LPS
  ------------------------------------------------------------------------------------------------------------------------------
  sub60                     81.08       0.00       0.00       1.82      70.16       7.91      78.07        1.03   747.45   0.963
  sub61                     81.08       0.00       0.00       2.63      66.17      11.16      77.33        1.42  1036.27   0.954
  sub62                     81.08       0.00       0.00       1.21      73.31       5.28      78.59        2.15  1445.22   0.969
  sub63                     81.08       0.00       0.00       4.84      56.60      18.68      75.28        1.71  1152.95   0.929
  sub64                     81.08       0.00       0.00       2.45      67.72       9.72      77.43        1.86  1179.77   0.955
  sub65                     81.08       0.00       0.00       2.12      69.29       8.42      77.72        2.14  1316.60   0.959
  sub66                     81.08       0.00       0.00       5.99      56.49      17.53      74.02        3.45  1710.42   0.913
  sub67                     81.08       0.00       0.00       1.17      73.36       5.32      78.68        1.46  1119.82   0.970
  sub68                     81.08       0.00       0.00       2.18      68.55       9.17      77.72        2.14  1489.04   0.959
  sub69                     81.08       0.00       0.00       1.94      68.81      10.23      79.04        2.93  1752.10   0.975
  sub70                     81.08       0.00       0.00       6.48      53.35      21.09      74.44        2.15   958.43   0.918
  sub71                     81.08       0.00       0.00       1.24      73.27       5.25      78.52        2.05  1275.74   0.968
  sub72                     81.08       0.00       0.00       1.10      74.01       4.57      78.58        1.08   613.87   0.969
  
  
  ******************
  Node Depth Summary
  ******************
  
  ---------------------------------------------------------------------------------
                                 Average  Maximum  Maximum  Time of Max    Reported
                                   Depth    Depth      HGL   Occurrence   Max Depth
  Node                 Type       Meters   Meters   Meters  days hr:min      Meters
  ---------------------------------------------------------------------------------
  WS02003060           JUNCTION     0.22     0.38     5.31     0  03:04        0.38
  WS02003066           JUNCTION     0.18     0.30     5.85     0  03:04        0.30
  WS02003067           JUNCTION     0.48     0.70     6.02     0  03:04        0.70
  WS02003069           JUNCTION     0.25     0.43     5.01     0  03:05        0.43
  WS02003072           JUNCTION     0.31     0.50     4.87     0  03:06        0.50
  WS02003073           JUNCTION     0.17     0.30     4.36     0  03:06        0.30
  WS02004401           JUNCTION     0.58     0.85     6.85     0  03:02        0.85
  WS02004402           JUNCTION     0.61     0.88     6.84     0  03:02        0.87
  WS02004403           JUNCTION     0.63     0.89     6.82     0  03:02        0.89
  WS02004404           JUNCTION     0.70     0.96     6.81     0  03:02        0.96
  WS02004405           JUNCTION     0.70     0.95     6.80     0  03:02        0.95
  WS02004406           JUNCTION     0.71     0.96     6.79     0  02:43        0.96
  WS02004407           JUNCTION     0.17     0.30     6.61     0  03:03        0.30
  WS02004409           JUNCTION     0.38     0.67     6.44     0  03:03        0.67
  WS02004410           JUNCTION     0.40     0.68     6.40     0  03:03        0.68
  WS02004411           JUNCTION     0.42     0.69     6.37     0  03:03        0.69
  WS02004412           JUNCTION     0.44     0.70     6.34     0  03:04        0.70
  WS02004413           JUNCTION     0.59     0.86     6.33     0  03:04        0.86
  WS02006109           JUNCTION     0.67     1.25     7.87     0  02:35        1.18
  WS02006110           JUNCTION     0.66     1.44     8.02     0  02:35        1.33
  WS02006111           JUNCTION     0.18     0.29     7.00     0  02:41        0.29
  WS02006112           JUNCTION     0.75     1.11     7.00     0  03:11        1.07
  WS02006113           JUNCTION     0.28     0.46     7.36     0  02:41        0.46
  WS02006115           JUNCTION     0.47     0.75     6.89     0  03:02        0.75
  WS02006116           JUNCTION     0.55     0.83     6.87     0  03:02        0.83
  WS02006228           JUNCTION     0.67     1.40     8.05     0  02:34        1.13
  WS02006229           JUNCTION     0.64     1.44     8.14     0  02:34        1.09
  WS02006230           JUNCTION     0.66     1.73     8.48     0  02:34        1.23
  WS02006231           JUNCTION     0.46     2.24     9.36     0  01:54        1.11
  WS02006232           JUNCTION     0.59     2.18     9.22     0  01:46        2.18
  WS02006234           JUNCTION     0.53     1.96     9.12     0  01:46        1.96
  WS02006235           JUNCTION     0.57     2.00     9.16     0  01:46        2.00
  WS02006238           JUNCTION     0.60     2.15     9.29     0  01:46        2.15
  WS02006239           JUNCTION     0.57     2.03     9.24     0  01:46        2.03
  WS02006240           JUNCTION     0.54     2.10     9.39     0  01:46        2.10
  WS02006242           JUNCTION     0.61     1.55     8.82     0  01:45        1.55
  WS02006243           JUNCTION     0.53     1.48     8.90     0  01:46        1.48
  WS02006245           JUNCTION     0.53     1.56     9.04     0  01:46        1.56
  WS02006247           JUNCTION     0.55     1.47     8.97     0  01:46        1.47
  WS02006248           JUNCTION     0.52     1.10     8.69     0  01:44        1.10
  WS02006249           JUNCTION     0.54     1.09     8.69     0  01:43        1.09
  WS02006251           JUNCTION     0.54     1.58     9.25     0  01:43        1.33
  WS02006252           JUNCTION     0.36     1.50     9.74     0  00:00        0.89
  WS02006256           JUNCTION     1.14     2.35     9.28     0  00:00        2.35
  WSF200               JUNCTION     0.16     0.29     5.52     0  03:04        0.29
  YS02001580           JUNCTION     0.16     1.05     9.59     0  01:43        0.79
  YS02001583           JUNCTION     0.19     1.14     9.64     0  01:43        0.82
  YS02001586           JUNCTION     0.29     1.13     9.30     0  01:43        1.13
  YS02001590           JUNCTION     0.40     1.40     9.26     0  01:40        1.38
  YS02001593           JUNCTION     0.34     1.35     9.22     0  01:43        1.29
  YS02001596           JUNCTION     0.46     1.69     9.11     0  01:43        1.67
  YS02001600           JUNCTION     0.54     1.87     9.00     0  01:43        1.87
  YS02001601           JUNCTION     0.72     2.06     8.90     0  01:40        2.06
  YS02001602           JUNCTION     0.62     1.87     8.77     0  01:40        1.87
  YS02001605           JUNCTION     0.57     1.78     8.68     0  01:40        1.78
  YS02001607           JUNCTION     0.54     1.68     8.53     0  01:42        1.67
  YS02001610           JUNCTION     0.58     1.68     8.48     0  01:42        1.68
  YS02001613           JUNCTION     0.54     1.70     8.54     0  01:42        1.70
  YS02001616           JUNCTION     0.48     1.61     8.52     0  01:42        1.61
  YS02001619           JUNCTION     0.46     1.61     8.54     0  01:44        1.61
  YS02001622           JUNCTION     0.44     1.62     8.52     0  01:42        1.61
  YS02001625           JUNCTION     0.68     1.78     8.38     0  01:42        1.78
  YS02001629           JUNCTION     0.57     1.85     8.40     0  01:42        1.85
  YS02001633           JUNCTION     0.64     2.08     8.53     0  01:48        2.08
  YS02001641           JUNCTION     0.61     2.10     8.54     0  02:10        2.10
  YS02001644           JUNCTION     0.59     1.92     8.35     0  01:46        1.92
  YS02001647           JUNCTION     0.38     1.81     8.42     0  01:46        1.78
  YS02001649           JUNCTION     0.43     2.05     8.44     0  01:47        2.05
  YS02001652           JUNCTION     0.32     2.12     8.72     0  01:47        1.84
  YS02001655           JUNCTION     0.24     2.13     8.98     0  01:47        1.65
  YS02001658           JUNCTION     0.18     2.06     9.20     0  01:47        1.44
  YS02001661           JUNCTION     0.19     1.98     9.39     0  01:47        1.25
  YS02001664           JUNCTION     0.08     1.66     9.59     0  01:47        0.75
  YS02001745           JUNCTION     0.09     2.11     9.62     0  01:47        2.11
  YS02001748           JUNCTION     0.15     2.26     9.33     0  01:47        2.17
  YS02001751           JUNCTION     0.20     2.20     9.08     0  01:47        2.13
  YS02001754           JUNCTION     0.27     2.20     8.81     0  01:47        2.19
  YS02001757           JUNCTION     0.43     2.21     8.47     0  01:47        2.21
  YS02001759           JUNCTION     0.38     2.20     8.56     0  01:47        2.19
  YS02001762           JUNCTION     0.37     2.15     8.55     0  01:47        2.12
  YS02001765           JUNCTION     0.35     2.10     8.55     0  01:47        2.04
  YS02001767           JUNCTION     0.35     2.03     8.52     0  01:47        1.99
  YS02001770           JUNCTION     0.36     1.95     8.44     0  01:45        1.95
  YS02001774           JUNCTION     0.42     2.05     8.47     0  01:46        2.05
  YS02001779           JUNCTION     0.26     1.68     8.37     0  01:45        1.68
  YS02001783           JUNCTION     0.33     2.40     8.54     0  01:45        2.40
  YS02001784           JUNCTION     0.33     2.10     8.17     0  01:45        2.10
  YS02001786           JUNCTION     0.27     1.04     7.07     0  01:45        0.88
  YS02001788           JUNCTION     0.20     0.62     6.60     0  01:45        0.62
  YS02001790           JUNCTION     0.23     0.73     6.37     0  01:50        0.72
  YS02001791           JUNCTION     0.14     0.44     5.91     0  01:50        0.43
  YS02001793           JUNCTION     0.07     0.24     5.08     0  02:09        0.24
  YS02001882           JUNCTION     0.41     1.83     8.55     0  01:43        1.82
  YS02001884           JUNCTION     0.49     1.93     8.55     0  01:48        1.93
  YS02001887           JUNCTION     0.57     2.00     8.54     0  01:48        2.00
  YS02001890           JUNCTION     0.59     1.81     8.32     0  01:43        1.81
  YS02001895           JUNCTION     0.38     1.68     8.42     0  01:43        1.60
  YS02001898           JUNCTION     0.39     1.65     8.38     0  01:43        1.64
  YS02001901           JUNCTION     0.49     1.74     8.34     0  01:45        1.74
  YS02001904           JUNCTION     0.47     1.69     8.32     0  01:45        1.69
  YS02001907           JUNCTION     0.77     1.96     8.25     0  01:44        1.96
  YS02001910           JUNCTION     0.59     2.10     8.61     0  01:44        2.10
  YS02001915           JUNCTION     0.42     2.00     8.72     0  01:44        2.00
  YS02001918           JUNCTION     0.26     1.81     8.88     0  01:44        1.71
  YS02001920           JUNCTION     0.34     2.14     9.15     0  01:45        1.77
  YS02001923           JUNCTION     0.21     2.03     9.29     0  01:45        1.57
  YS02001926           JUNCTION     0.23     1.90     9.35     0  01:45        1.36
  YS02001929           JUNCTION     0.14     1.78     9.47     0  01:45        1.14
  YS02006553           JUNCTION     0.77     2.19     8.47     0  01:45        2.19
  YS02006556           JUNCTION     0.75     2.39     8.70     0  01:45        2.39
  YS02006558           JUNCTION     0.79     2.50     8.77     0  01:45        2.50
  YS02006561           JUNCTION     0.21     1.95     8.61     0  01:45        1.95
  YS02163301           JUNCTION     0.59     1.96     8.48     0  01:48        1.96
  YS02163601           JUNCTION     0.67     2.08     8.48     0  02:10        2.08
  YS02164001           JUNCTION     0.60     2.10     8.56     0  02:10        2.10
  CC-1                 OUTFALL      0.00     0.00     0.00     0  00:00        0.00
  CC-2                 OUTFALL      0.00     0.00     0.00     0  00:00        0.00
  JK-1                 OUTFALL      0.00     0.00     0.00     0  00:00        0.00
  JK-2                 OUTFALL      0.00     0.00     0.00     0  00:00        0.00
  WSC                  OUTFALL      0.17     0.30     0.97     0  03:06        0.30
  CC-storage           STORAGE      0.48     1.30     6.80     0  02:32        1.30
  JK-storage           STORAGE      0.19     2.99     3.79     0  00:00        0.68
  
  
  *******************
  Node Inflow Summary
  *******************
  
  -------------------------------------------------------------------------------------------------
                                  Maximum  Maximum                  Lateral       Total        Flow
                                  Lateral    Total  Time of Max      Inflow      Inflow     Balance
                                   Inflow   Inflow   Occurrence      Volume      Volume       Error
  Node                 Type           LPS      LPS  days hr:min    10^6 ltr    10^6 ltr     Percent
  -------------------------------------------------------------------------------------------------
  WS02003060           JUNCTION     16.53   551.14     0  03:04       0.471        5.18       0.056
  WS02003066           JUNCTION      0.00   534.39     0  03:04           0        4.71       0.039
  WS02003067           JUNCTION      0.00   534.32     0  03:04           0        4.72       0.096
  WS02003069           JUNCTION      0.32   551.41     0  03:05     0.00912        5.19       0.105
  WS02003072           JUNCTION      0.00   551.09     0  03:05           0        5.18       0.181
  WS02003073           JUNCTION      1.82   552.73     0  03:06      0.0519        5.23       0.155
  WS02004401           JUNCTION      0.00   550.20     0  02:42           0        4.83       0.222
  WS02004402           JUNCTION      0.00   546.20     0  02:42           0        4.82       0.225
  WS02004403           JUNCTION      0.00   544.80     0  02:42           0        4.81       0.219
  WS02004404           JUNCTION      0.16   541.64     0  02:42     0.00462         4.8       0.190
  WS02004405           JUNCTION      0.04   541.47     0  02:42     0.00109        4.79       0.261
  WS02004406           JUNCTION      0.00   542.53     0  02:42           0        4.78       0.452
  WS02004407           JUNCTION      0.00   536.54     0  02:43           0        4.76       0.029
  WS02004409           JUNCTION      0.00   535.57     0  03:03           0        4.76       0.075
  WS02004410           JUNCTION      0.00   535.09     0  03:03           0        4.75       0.116
  WS02004411           JUNCTION      0.00   534.83     0  03:03           0        4.75       0.140
  WS02004412           JUNCTION      0.00   534.61     0  03:03           0        4.74       0.179
  WS02004413           JUNCTION      0.00   534.36     0  03:03           0        4.73       0.323
  WS02006109           JUNCTION      1.23   581.55     0  02:41      0.0351        4.87       0.144
  WS02006110           JUNCTION      0.00   586.30     0  02:41           0        4.87       0.129
  WS02006111           JUNCTION      0.00   574.67     0  02:41           0        4.86       0.014
  WS02006112           JUNCTION      0.00   551.61     0  02:41           0        4.86       0.426
  WS02006113           JUNCTION      0.00   603.49     0  02:41           0        4.86       0.044
  WS02006115           JUNCTION      0.00   554.02     0  02:41           0        4.84       0.156
  WS02006116           JUNCTION      0.00   549.72     0  02:42           0        4.83       0.054
  WS02006228           JUNCTION      0.00   572.33     0  02:41           0        4.84       0.039
  WS02006229           JUNCTION      0.00   579.36     0  02:41           0        4.85       0.146
  WS02006230           JUNCTION     10.28   606.57     0  03:22       0.293        4.85       0.016
  WS02006231           JUNCTION      0.00   595.03     0  03:15           0        4.55      -0.112
  WS02006232           JUNCTION      0.00   593.85     0  03:15           0        4.57       0.379
  WS02006234           JUNCTION      0.00   590.96     0  01:44           0        4.54      -0.534
  WS02006235           JUNCTION      0.00   594.16     0  01:42           0         4.7       0.456
  WS02006238           JUNCTION      0.00   425.15     0  07:08           0        3.53      -0.144
  WS02006239           JUNCTION      0.00   425.78     0  07:08           0        3.45      -0.134
  WS02006240           JUNCTION      0.00   424.77     0  07:08           0        3.39       0.012
  WS02006242           JUNCTION      0.00   424.34     0  07:08           0        3.36       0.028
  WS02006243           JUNCTION      0.00   423.56     0  03:28           0        3.34      -0.094
  WS02006245           JUNCTION      0.00   424.04     0  03:28           0        3.34       0.341
  WS02006247           JUNCTION      0.00   424.64     0  07:07           0        3.34       0.000
  WS02006248           JUNCTION      0.00   426.67     0  07:08           0        3.36       0.131
  WS02006249           JUNCTION      0.00   476.79     0  01:38           0        3.61       0.317
  WS02006251           JUNCTION      0.08   408.88     0  01:43     0.00219        3.61      -0.031
  WS02006252           JUNCTION      0.00   400.00     0  00:00           0        3.61      -0.018
  WS02006256           JUNCTION      0.00   336.05     0  02:13           0        1.81      -3.425
  WSF200               JUNCTION      0.00   534.42     0  03:04           0        4.71       0.014
  YS02001580           JUNCTION      0.00   124.82     0  01:42           0     0.00456       2.481
  YS02001583           JUNCTION      0.00   207.77     0  01:42           0      0.0152      -7.101
  YS02001586           JUNCTION    958.43   958.43     0  01:53        2.15        2.16       0.073
  YS02001590           JUNCTION      0.00   318.05     0  01:46           0        1.48      -0.033
  YS02001593           JUNCTION      0.00   318.12     0  01:48           0        1.48       0.019
  YS02001596           JUNCTION      0.00   317.95     0  02:01           0        1.48       0.006
  YS02001600           JUNCTION      0.00   318.09     0  01:48           0        1.48       0.011
  YS02001601           JUNCTION   1752.10  2069.78     0  01:51        2.93         4.4       0.022
  YS02001602           JUNCTION      0.00   547.71     0  01:42           0        2.44       0.020
  YS02001605           JUNCTION      0.00   547.86     0  01:42           0        2.31       0.020
  YS02001607           JUNCTION      0.00   548.04     0  01:42           0        2.31       0.088
  YS02001610           JUNCTION      0.00   949.21     0  01:53           0         2.8       0.090
  YS02001613           JUNCTION      0.00   612.60     0  01:54           0        2.23       0.076
  YS02001616           JUNCTION      0.00   612.72     0  01:53           0        2.23       0.022
  YS02001619           JUNCTION   1710.42  1710.42     0  01:52        3.45        5.19       0.005
  YS02001622           JUNCTION      0.00  1053.83     0  01:53           0        4.68      -0.006
  YS02001625           JUNCTION      0.00  1490.20     0  01:54           0        4.96       0.185
  YS02001629           JUNCTION      0.00   943.06     0  01:42           0        3.93       0.016
  YS02001633           JUNCTION   1316.80  1430.86     0  01:44        2.14        5.65       0.062
  YS02001641           JUNCTION      0.00  1425.48     0  01:44           0        5.24       0.057
  YS02001644           JUNCTION   1179.81  1879.30     0  01:44        1.86        7.09       0.049
  YS02001647           JUNCTION      0.00  1880.09     0  01:44           0        6.31       0.009
  YS02001649           JUNCTION      0.00  2174.56     0  01:44           0        8.02       0.011
  YS02001652           JUNCTION      0.00  1178.66     0  01:50           0        1.71      -0.071
  YS02001655           JUNCTION      0.15  1178.86     0  01:50     0.00439        1.71       0.012
  YS02001658           JUNCTION      0.00  1178.33     0  01:50           0        1.71      -0.022
  YS02001661           JUNCTION      0.00  1178.31     0  01:50           0        1.71       0.008
  YS02001664           JUNCTION   1152.95  1152.95     0  01:50        1.71        1.71      -0.034
  YS02001745           JUNCTION    747.46   747.46     0  01:50        1.03        1.03       0.146
  YS02001748           JUNCTION      0.04   760.56     0  01:50     0.00128        1.03      -0.280
  YS02001751           JUNCTION      0.01   760.93     0  01:50    0.000313        1.04       0.053
  YS02001754           JUNCTION      0.26   761.06     0  01:50     0.00741        1.05      -0.121
  YS02001757           JUNCTION      0.00  3583.79     0  01:50           0        12.2       0.051
  YS02001759           JUNCTION   1036.31  1529.75     0  01:46        1.42        3.18      -0.004
  YS02001762           JUNCTION      0.00   871.28     0  01:46           0        1.76      -0.001
  YS02001765           JUNCTION      0.00   872.62     0  01:46           0        1.76      -0.011
  YS02001767           JUNCTION      0.54   876.09     0  01:46      0.0152        1.76       0.009
  YS02001770           JUNCTION   1445.37  1445.37     0  01:50        2.16         2.2      -0.006
  YS02001774           JUNCTION      0.00   849.17     0  01:51           0       0.451       0.244
  YS02001779           JUNCTION      0.01   849.36     0  01:51    0.000142       0.408      -0.098
  YS02001783           JUNCTION      0.00  1175.96     0  01:48           0        4.41       0.004
  YS02001784           JUNCTION      1.06  1177.40     0  01:48      0.0302        4.44       0.011
  YS02001786           JUNCTION      0.06  1178.42     0  01:48      0.0016        4.45       0.017
  YS02001788           JUNCTION      0.07  1178.74     0  01:48     0.00202        4.45       0.006
  YS02001790           JUNCTION      0.15  1181.45     0  01:49     0.00442        4.45       0.015
  YS02001791           JUNCTION      0.00  1291.53     0  01:50           0        4.45      -0.022
  YS02001793           JUNCTION      0.00  1235.85     0  01:50           0        4.45      -0.013
  YS02001882           JUNCTION      0.00    49.37     0  01:43           0      0.0129       5.174
  YS02001884           JUNCTION      0.00   102.91     0  01:43           0      0.0489       5.185
  YS02001887           JUNCTION   1120.27  1121.57     0  01:50        1.48        1.51       0.287
  YS02001890           JUNCTION      0.00  1120.92     0  01:50           0        1.47       0.351
  YS02001895           JUNCTION      0.00   518.55     0  01:52           0        1.21       0.150
  YS02001898           JUNCTION      0.00   518.79     0  01:53           0        1.21       0.003
  YS02001901           JUNCTION      0.00   518.88     0  01:53           0        1.21       0.268
  YS02001904           JUNCTION      0.00   518.55     0  01:53           0        1.22       0.223
  YS02001907           JUNCTION      0.00  2723.30     0  01:51           0        4.51       0.399
  YS02001910           JUNCTION      0.00  1895.25     0  01:51           0        3.21       0.226
  YS02001915           JUNCTION   1275.76  1895.23     0  01:51        2.05        3.26       0.050
  YS02001918           JUNCTION      0.00   620.99     0  01:51           0        1.24       0.021
  YS02001920           JUNCTION      2.87   620.49     0  01:51      0.0818        1.22       0.070
  YS02001923           JUNCTION      0.04   616.07     0  01:51     0.00107        1.12      -0.041
  YS02001926           JUNCTION      0.05   769.78     0  01:45     0.00149         1.1      -0.103
  YS02001929           JUNCTION    613.87   692.84     0  01:45        1.08        1.09      -0.068
  YS02006553           JUNCTION      0.00   795.78     0  02:12           0        2.47       0.482
  YS02006556           JUNCTION      0.00   795.29     0  02:12           0        2.48       0.315
  YS02006558           JUNCTION   1489.92  1489.92     0  01:50        2.16        4.53       0.071
  YS02006561           JUNCTION      0.00  1176.76     0  01:48           0        4.41      -0.002
  YS02163301           JUNCTION      0.00   931.44     0  01:44           0        3.92       0.042
  YS02163601           JUNCTION      0.11  1429.15     0  01:44     0.00313        5.24       0.097
  YS02164001           JUNCTION      0.00  1426.58     0  01:44           0        5.23       0.047
  CC-1                 OUTFALL       0.00   683.00     0  00:00           0        5.31       0.000
  CC-2                 OUTFALL       0.00   683.00     0  00:00           0        5.31       0.000
  JK-1                 OUTFALL       0.00  1000.00     0  00:00           0        1.41       0.000
  JK-2                 OUTFALL       0.00  1000.00     0  00:00           0        1.41       0.000
  WSC                  OUTFALL       0.00   552.47     0  03:06           0        5.22       0.000
  CC-storage           STORAGE       0.00  3582.57     0  01:50           0        14.5      -0.353
  JK-storage           STORAGE       0.00  1364.05     0  01:59           0         4.6      -0.448
  
  
  **********************
  Node Surcharge Summary
  **********************
  
  Surcharging occurs when water rises above the top of the highest conduit.
  ---------------------------------------------------------------------
                                               Max. Height   Min. Depth
                                   Hours       Above Crown    Below Rim
  Node                 Type      Surcharged         Meters       Meters
  ---------------------------------------------------------------------
  WS02006109           JUNCTION        1.96          0.432        1.388
  WS02006110           JUNCTION        0.54          0.525        1.325
  WS02006112           JUNCTION        1.31          0.113        1.567
  WS02006228           JUNCTION        1.94          0.568        1.632
  WS02006229           JUNCTION        1.98          0.642        1.808
  WS02006230           JUNCTION        0.59          0.652        0.918
  WS02006231           JUNCTION        1.16          1.530        0.000
  WS02006232           JUNCTION        2.12          1.480        0.000
  WS02006234           JUNCTION        1.55          1.240        0.000
  WS02006235           JUNCTION        1.78          1.290        0.000
  WS02006238           JUNCTION        1.98          1.430        0.000
  WS02006239           JUNCTION        1.93          1.290        0.000
  WS02006240           JUNCTION        2.00          1.390        0.000
  WS02006242           JUNCTION        2.17          0.820        0.000
  WS02006243           JUNCTION        2.02          0.770        0.000
  WS02006245           JUNCTION        2.02          0.850        0.000
  WS02006247           JUNCTION        2.06          0.760        0.000
  WS02006248           JUNCTION        2.00          0.380        0.000
  WS02006249           JUNCTION        2.04          0.390        0.000
  WS02006251           JUNCTION        1.49          0.550        0.630
  WS02006252           JUNCTION        2.50          1.100        0.000
  WS02006256           JUNCTION        6.04          2.050        0.000
  YS02001580           JUNCTION        0.76          0.450        0.000
  YS02001583           JUNCTION        0.76          0.500        0.000
  YS02001586           JUNCTION        0.86          0.510        0.000
  YS02001590           JUNCTION        0.93          0.750        0.000
  YS02001593           JUNCTION        0.94          0.733        0.107
  YS02001596           JUNCTION        1.04          0.965        0.105
  YS02001600           JUNCTION        1.21          1.190        0.000
  YS02001601           JUNCTION        1.56          1.440        0.000
  YS02001602           JUNCTION        1.48          1.270        0.000
  YS02001605           JUNCTION        1.43          1.180        0.000
  YS02001607           JUNCTION        0.87          0.680        0.000
  YS02001610           JUNCTION        0.89          0.680        0.000
  YS02001613           JUNCTION        0.85          0.700        0.000
  YS02001616           JUNCTION        0.81          0.610        0.000
  YS02001619           JUNCTION        0.80          0.610        0.000
  YS02001622           JUNCTION        0.79          0.620        0.000
  YS02001625           JUNCTION        0.99          0.780        0.000
  YS02001629           JUNCTION        0.71          0.470        0.000
  YS02001633           JUNCTION        0.99          1.060        0.000
  YS02001641           JUNCTION        0.88          1.100        0.000
  YS02001644           JUNCTION        0.84          0.920        0.000
  YS02001647           JUNCTION        0.60          0.813        0.087
  YS02001649           JUNCTION        0.69          1.050        0.000
  YS02001652           JUNCTION        0.49          1.095        0.035
  YS02001655           JUNCTION        0.35          1.129        0.071
  YS02001658           JUNCTION        0.24          1.057        0.243
  YS02001661           JUNCTION        0.12          0.912        0.478
  YS02001664           JUNCTION        0.01          0.663        0.647
  YS02001745           JUNCTION        0.01          1.107        0.243
  YS02001748           JUNCTION        0.15          1.177        0.013
  YS02001751           JUNCTION        0.26          1.200        0.000
  YS02001754           JUNCTION        0.37          1.150        0.000
  YS02001757           JUNCTION        0.72          1.210        0.000
  YS02001759           JUNCTION        0.62          1.201        0.009
  YS02001762           JUNCTION        0.59          1.150        0.000
  YS02001765           JUNCTION        0.55          1.100        0.000
  YS02001767           JUNCTION        0.51          1.030        0.000
  YS02001770           JUNCTION        0.49          0.920        0.000
  YS02001774           JUNCTION        0.58          1.050        0.000
  YS02001779           JUNCTION        0.38          0.680        0.000
  YS02001783           JUNCTION        0.65          1.600        0.000
  YS02001784           JUNCTION        0.62          1.300        0.190
  YS02001786           JUNCTION        0.52          0.237        1.193
  YS02001882           JUNCTION        0.59          0.830        0.000
  YS02001884           JUNCTION        0.60          0.870        0.000
  YS02001887           JUNCTION        0.64          0.950        0.000
  YS02001890           JUNCTION        0.65          0.760        0.000
  YS02001895           JUNCTION        0.58          0.676        0.074
  YS02001898           JUNCTION        0.57          0.619        0.121
  YS02001901           JUNCTION        0.62          0.736        0.134
  YS02001904           JUNCTION        0.61          0.688        0.162
  YS02001907           JUNCTION        0.85          0.950        0.000
  YS02001910           JUNCTION        0.68          1.100        0.000
  YS02001915           JUNCTION        0.59          1.000        0.000
  YS02001918           JUNCTION        0.50          0.810        0.000
  YS02001920           JUNCTION        0.52          1.140        0.000
  YS02001923           JUNCTION        0.20          0.820        0.000
  YS02001926           JUNCTION        0.23          0.900        0.000
  YS02001929           JUNCTION        0.09          0.780        0.000
  YS02006553           JUNCTION        0.87          1.190        0.000
  YS02006556           JUNCTION        0.77          1.350        0.000
  YS02006558           JUNCTION        0.76          1.400        0.000
  YS02006561           JUNCTION        0.46          1.150        0.000
  YS02163301           JUNCTION        0.97          0.964        0.066
  YS02163601           JUNCTION        1.02          1.080        0.000
  YS02164001           JUNCTION        0.90          1.100        0.000
  
  
  *********************
  Node Flooding Summary
  *********************
  
  Flooding refers to all water that overflows a node, whether it ponds or not.
  --------------------------------------------------------------------------
                                                             Total   Maximum
                                 Maximum   Time of Max       Flood    Ponded
                        Hours       Rate    Occurrence      Volume     Depth
  Node                 Flooded       LPS   days hr:min    10^6 ltr    Meters
  --------------------------------------------------------------------------
  WS02006231              0.01     67.59      0  02:13       0.000     0.000
  WS02006232              0.01     21.03      0  02:38       0.000     0.000
  WS02006234              0.01    125.79      0  02:13       0.000     0.000
  WS02006235              0.01     53.46      0  02:38       0.000     0.000
  WS02006238              0.01     42.36      0  02:38       0.000     0.000
  WS02006239              0.01      9.51      0  01:54       0.000     0.000
  WS02006240              0.01      4.97      0  01:46       0.000     0.000
  WS02006242              0.02     35.90      0  01:46       0.001     0.000
  WS02006243              0.01      5.06      0  01:46       0.000     0.000
  WS02006245              0.01      4.25      0  03:15       0.000     0.000
  WS02006247              0.01      4.26      0  03:15       0.000     0.000
  WS02006248              0.20     32.54      0  01:46       0.009     0.000
  WS02006249              1.34    104.38      0  02:41       0.242     0.000
  WS02006252              0.01    245.63      0  00:00       0.000     0.000
  WS02006256              1.67    325.47      0  02:13       0.632     0.000
  YS02001580              0.01    103.57      0  01:43       0.000     0.000
  YS02001583              0.01    106.72      0  01:43       0.000     0.000
  YS02001586              0.64    640.91      0  01:53       0.672     0.000
  YS02001590              0.01     54.67      0  01:40       0.000     0.000
  YS02001600              0.01      0.73      0  01:43       0.000     0.000
  YS02001601              0.77   1671.87      0  01:51       1.965     0.000
  YS02001602              0.62     62.15      0  02:10       0.127     0.000
  YS02001605              0.01      5.98      0  01:42       0.000     0.000
  YS02001607              0.01      8.63      0  01:42       0.000     0.000
  YS02001610              0.56    948.96      0  01:53       1.065     0.000
  YS02001613              0.01     11.21      0  01:42       0.000     0.000
  YS02001616              0.06     12.77      0  02:10       0.000     0.000
  YS02001619              0.09     57.71      0  01:52       0.010     0.000
  YS02001622              0.01    129.09      0  01:42       0.000     0.000
  YS02001625              0.48   1490.14      0  01:54       1.426     0.000
  YS02001629              0.19    423.66      0  01:49       0.150     0.000
  YS02001633              0.01      2.35      0  01:48       0.000     0.000
  YS02001641              0.01      1.28      0  02:10       0.000     0.000
  YS02001644              0.23   1681.44      0  01:50       0.776     0.000
  YS02001649              0.01    166.41      0  01:47       0.002     0.000
  YS02001751              0.01     66.08      0  01:47       0.000     0.000
  YS02001754              0.01     29.51      0  01:47       0.000     0.000
  YS02001757              0.01     49.55      0  01:47       0.000     0.000
  YS02001762              0.01     14.39      0  01:47       0.000     0.000
  YS02001765              0.01     10.49      0  01:47       0.000     0.000
  YS02001767              0.01      5.13      0  01:47       0.000     0.000
  YS02001770              0.08    156.48      0  01:50       0.022     0.000
  YS02001774              0.01      4.44      0  01:46       0.000     0.000
  YS02001779              0.21    849.27      0  01:51       0.389     0.000
  YS02001783              0.01      4.14      0  01:45       0.000     0.000
  YS02001882              0.01     12.92      0  01:43       0.000     0.000
  YS02001884              0.01      0.98      0  01:48       0.000     0.000
  YS02001887              0.01      1.35      0  01:48       0.000     0.000
  YS02001890              0.23    604.95      0  01:50       0.249     0.000
  YS02001907              0.45   2722.91      0  01:51       2.117     0.000
  YS02001910              0.01    104.71      0  01:44       0.000     0.000
  YS02001915              0.01     86.42      0  01:44       0.000     0.000
  YS02001918              0.01    202.09      0  01:45       0.003     0.000
  YS02001920              0.01     28.23      0  01:45       0.000     0.000
  YS02001923              0.01    153.88      0  01:45       0.000     0.000
  YS02001926              0.01    679.60      0  01:45       0.004     0.000
  YS02001929              0.01    272.64      0  01:45       0.001     0.000
  YS02006553              0.01      2.82      0  01:45       0.000     0.000
  YS02006556              0.01     15.49      0  01:45       0.000     0.000
  YS02006558              0.01      9.51      0  01:45       0.000     0.000
  YS02006561              0.01      3.99      0  01:45       0.000     0.000
  YS02163601              0.01      1.07      0  02:10       0.000     0.000
  YS02164001              0.01      2.50      0  02:10       0.000     0.000
  
  
  **********************
  Storage Volume Summary
  **********************
  
  ------------------------------------------------------------------------------------------------
                         Average    Avg   Evap  Exfil     Maximum    Max    Time of Max    Maximum
                          Volume   Pcnt   Pcnt   Pcnt      Volume   Pcnt     Occurrence    Outflow
  Storage Unit           1000 m³   Full   Loss   Loss     1000 m³   Full    days hr:min        LPS
  ------------------------------------------------------------------------------------------------
  CC-storage               1.349   21.0    0.0    0.0       3.621   56.5       0  02:32    1783.53
  JK-storage               0.010    3.4    0.0    0.0       0.150   51.6       0  00:00    2300.00
  
  
  ***********************
  Outfall Loading Summary
  ***********************
  
  -----------------------------------------------------------
                         Flow       Avg       Max       Total
                         Freq      Flow      Flow      Volume
  Outfall Node           Pcnt       LPS       LPS    10^6 ltr
  -----------------------------------------------------------
  CC-1                  46.08    683.00    683.00       5.307
  CC-2                  46.08    683.00    683.00       5.307
  JK-1                   8.63   1000.00   1000.00       1.409
  JK-2                   8.63   1000.00   1000.00       1.409
  WSC                   99.94    244.31    552.47       5.217
  -----------------------------------------------------------
  System                41.87   3610.31   3904.67      18.649
  
  
  ********************
  Link Flow Summary
  ********************
  
  -----------------------------------------------------------------------------
                                 Maximum  Time of Max   Maximum    Max/    Max/
                                  |Flow|   Occurrence   |Veloc|    Full    Full
  Link                 Type          LPS  days hr:min     m/sec    Flow   Depth
  -----------------------------------------------------------------------------
  1                    CONDUIT    552.47     0  03:06      2.82    0.19    0.30
  WS02003060WS02003069 CONDUIT    551.09     0  03:05      1.64    0.22    0.34
  WS02003066WSF200     CONDUIT    534.42     0  03:04      2.85    0.09    0.22
  WS02003067WS02003066 CONDUIT    534.39     0  03:04      1.20    0.17    0.41
  WS02003069WS02003072 CONDUIT    551.09     0  03:05      1.37    0.27    0.39
  WS02003072WS02003073 CONDUIT    550.91     0  03:06      1.43    1.19    0.37
  WS02004401WS02004402 CONDUIT    546.20     0  02:42      1.22    0.66    0.86
  WS02004402WS02004403 CONDUIT    544.80     0  02:42      1.24    0.78    0.88
  WS02004403WS02004404 CONDUIT    541.48     0  02:42      1.24    0.39    0.93
  WS02004404WS02004405 CONDUIT    541.43     0  02:42      1.45    5.30    0.96
  WS02004405WS02004406 CONDUIT    542.53     0  02:42      1.46    1.07    0.96
  WS02004406WS02004407 CONDUIT    536.54     0  02:43      1.04    0.24    0.63
  WS02004407WS02004409 CONDUIT    535.57     0  03:03      1.59    0.19    0.48
  WS02004409WS02004410 CONDUIT    535.09     0  03:03      1.06    0.69    0.67
  WS02004410WS02004411 CONDUIT    534.83     0  03:03      1.13    0.73    0.68
  WS02004411WS02004412 CONDUIT    534.61     0  03:03      1.20    0.76    0.69
  WS02004412WS02004413 CONDUIT    534.36     0  03:03      1.22    0.36    0.78
  WS02004413WS02003067 CONDUIT    534.32     0  03:04      1.11    0.23    0.59
  WS02006109WS02006110 CONDUIT    586.30     0  02:41      1.17    1.13    1.00
  WS02006110WS02006113 CONDUIT    603.49     0  02:41      1.44    0.55    0.79
  WS02006111WS02006112 CONDUIT    551.61     0  02:41      1.95    0.26    0.67
  WS02006112WS02006115 CONDUIT    554.02     0  02:41      0.84    0.33    0.87
  WS02006113WS02006111 CONDUIT    574.67     0  02:41      2.49    0.69    0.47
  WS02006115WS02006116 CONDUIT    549.72     0  02:42      1.29    0.71    0.76
  WS02006116WS02004401 CONDUIT    550.20     0  02:42      1.21    0.76    0.84
  WS02006228WS02006109 CONDUIT    580.32     0  02:41      1.15    2.54    1.00
  WS02006229WS02006228 CONDUIT    572.33     0  02:41      1.14    1.90    1.00
  WS02006230WS02006229 CONDUIT    579.36     0  02:41      1.51   12.89    1.00
  WS02006231WS02006230 CONDUIT    596.29     0  03:22      1.61    9.04    1.00
  WS02006232WS02006231 CONDUIT    595.03     0  03:15      1.55    1.25    1.00
  WS02006234WS02006232 CONDUIT    593.85     0  03:15      1.54    1.20    1.00
  WS02006235WS02006234 CONDUIT    590.96     0  01:44      1.55    6.23    1.00
  WS02006238WS02006235 CONDUIT    428.42     0  07:07      1.45    0.96    1.00
  WS02006239WS02006238 CONDUIT    425.15     0  07:08      1.20    1.36    1.00
  WS02006240WS02006239 CONDUIT    425.78     0  07:08      1.29    1.34    1.00
  WS02006242WS02006240 CONDUIT    424.77     0  07:08      1.17    1.69    1.00
  WS02006243WS02006242 CONDUIT    424.34     0  07:08      1.43    0.91    1.00
  WS02006245WS02006243 CONDUIT    423.56     0  03:28      1.44    1.25    1.00
  WS02006247WS02006245 CONDUIT    424.04     0  03:28      1.43    3.36    1.00
  WS02006248WS02006247 CONDUIT    424.64     0  07:07      1.43    0.92    1.00
  WS02006249WS02006248 CONDUIT    426.67     0  07:08      1.36    2.34    1.00
  WS02006251WS02006249 CONDUIT    476.79     0  01:38      2.02    1.37    1.00
  WS02006252WS02006251 CONDUIT    408.80     0  01:43      4.89    1.50    1.00
  WS02006256WS02006235 CONDUIT    288.91     0  00:00      4.23    3.06    1.00
  WSF200WS02003060     CONDUIT    534.61     0  03:04      2.06    0.12    0.28
  YS02001580YS02001583 CONDUIT    124.82     0  01:42      0.77    0.48    1.00
  YS02001583YS02001586 CONDUIT    180.12     0  01:42      0.78    0.27    1.00
  YS02001586YS02001590 CONDUIT    318.05     0  01:46      1.28    0.56    1.00
  YS02001590YS02001593 CONDUIT    318.12     0  01:48      1.13    2.00    1.00
  YS02001593YS02001596 CONDUIT    317.95     0  02:01      1.77    0.50    1.00
  YS02001596YS02001600 CONDUIT    318.09     0  01:48      1.24    0.62    1.00
  YS02001600YS02001601 CONDUIT    318.30     0  01:48      1.13    0.55    1.00
  YS02001601YS02001602 CONDUIT    547.71     0  01:42      1.94    1.98    1.00
  YS02001602YS02001605 CONDUIT    547.86     0  01:42      1.94   11.59    1.00
  YS02001605YS02001607 CONDUIT    548.04     0  01:42      1.94    3.01    1.00
  YS02001607YS02001610 CONDUIT    539.95     0  01:42      0.69    0.51    1.00
  YS02001610YS02001613 CONDUIT    612.79     0  01:53      0.78    0.71    1.00
  YS02001613YS02001616 CONDUIT    612.60     0  01:54      0.78    0.53    1.00
  YS02001616YS02001619 CONDUIT    612.72     0  01:53      0.78    1.06    1.00
  YS02001619YS02001622 CONDUIT   1053.83     0  01:53      1.34    1.55    1.00
  YS02001622YS02001625 CONDUIT   1053.50     0  01:53      1.34    0.56    1.00
  YS02001625YS02001629 CONDUIT    943.06     0  01:42      1.21    0.45    1.00
  YS02001629YS02163301 CONDUIT    931.44     0  01:44      1.19    1.15    1.00
  YS02001633YS02163601 CONDUIT   1429.04     0  01:44      1.82    1.50    1.00
  YS02001641YS02001644 CONDUIT   1426.29     0  01:44      1.82    4.61    1.00
  YS02001644YS02001647 CONDUIT   1880.09     0  01:44      2.42    1.10    1.00
  YS02001647YS02001649 CONDUIT   1893.33     0  01:44      2.42    1.00    1.00
  YS02001649YS02001757 CONDUIT   2183.69     0  01:44      2.78    1.33    1.00
  YS02001652YS02001649 CONDUIT   1178.90     0  01:50      1.50    0.58    1.00
  YS02001655YS02001652 CONDUIT   1178.66     0  01:50      1.50    0.57    1.00
  YS02001658YS02001655 CONDUIT   1178.70     0  01:50      1.98    0.50    1.00
  YS02001661YS02001658 CONDUIT   1178.33     0  01:50      2.41    0.46    1.00
  YS02001664YS02001661 CONDUIT   1178.31     0  01:50      2.48    0.37    1.00
  YS02001745YS02001748 CONDUIT    760.51     0  01:50      2.33    0.29    1.00
  YS02001748YS02001751 CONDUIT    760.92     0  01:50      1.81    0.38    1.00
  YS02001751YS02001754 CONDUIT    760.80     0  01:50      1.52    0.37    1.00
  YS02001754YS02001757 CONDUIT    761.36     0  01:50      0.97    0.31    1.00
  YS02001757CaochengTiaoxuchi CONDUIT   3582.57     0  01:50      6.01    1.55    1.00
  YS02001759YS02001757 CONDUIT   1526.48     0  01:46      1.94    1.08    1.00
  YS02001762YS02001759 CONDUIT    869.87     0  01:46      1.11    1.00    1.00
  YS02001765YS02001762 CONDUIT    871.28     0  01:46      1.11    0.82    1.00
  YS02001767YS02001765 CONDUIT    872.62     0  01:46      1.11    1.10    1.00
  YS02001770YS02001767 CONDUIT    875.56     0  01:46      1.11    3.47    1.00
  YS02001774YS02001770 CONDUIT    849.17     0  01:51      1.08    0.54    1.00
  YS02001779YS02001774 CONDUIT    849.35     0  01:51      1.08    0.43    1.00
  YS02001783YS02001784 CONDUIT   1176.34     0  01:48      2.34    1.62    1.00
  YS02001784YS02001785 CONDUIT   1178.36     0  01:48      2.34    2.74    1.00
  YS02001786YS02001788 CONDUIT   1178.67     0  01:48      2.52    2.27    0.89
  YS02001788YS02001790 CONDUIT   1181.29     0  01:49      2.72    0.87    0.84
  YS02001790YS02001791 CONDUIT   1291.53     0  01:50      3.42    1.41    0.71
  YS02001791YS02001793 CONDUIT   1235.85     0  01:50      6.75    0.53    0.42
  YS02001793JiankangQianchi CONDUIT   1364.05     0  01:59     15.07    0.11    0.50
  YS02001882YS02001884 CONDUIT     49.37     0  01:43      0.15    0.06    1.00
  YS02001884YS02001887 CONDUIT    102.91     0  01:43      0.13    0.14    1.00
  YS02001887YS02001890 CONDUIT   1120.92     0  01:50      1.43    1.92    1.00
  YS02001890YS02001895 CONDUIT    518.55     0  01:52      0.66    0.24    1.00
  YS02001895YS02001898 CONDUIT    518.79     0  01:53      0.66    0.90    1.00
  YS02001898YS02001901 CONDUIT    518.88     0  01:53      0.66    0.33    1.00
  YS02001901YS02001904 CONDUIT    518.55     0  01:53      0.66    0.80    1.00
  YS02001904YS02001907 CONDUIT    518.75     0  01:53      0.66    0.18    1.00
  YS02001907YS02006553 CONDUIT    795.78     0  02:12      0.88    0.94    1.00
  YS02001910YS02001907 CONDUIT   1895.51     0  01:51      2.41    1.07    1.00
  YS02001915YS02001910 CONDUIT   1895.25     0  01:51      2.41    0.94    1.00
  YS02001918YS02001915 CONDUIT    621.51     0  01:51      0.79    0.34    1.00
  YS02001920YS02001918 CONDUIT    620.99     0  01:51      0.79    0.60    1.00
  YS02001923YS02001920 CONDUIT    617.62     0  01:51      0.79    0.28    1.00
  YS02001926YS02001923 CONDUIT    616.04     0  01:51      0.97    0.88    1.00
  YS02001929YS02001926 CONDUIT    615.62     0  01:51      1.17    0.29    1.00
  YS02006553YS02006556 CONDUIT    795.29     0  02:12      1.01    0.68    1.00
  YS02006556YS02006558 CONDUIT    796.07     0  02:12      1.01    0.63    1.00
  YS02006558YS02006561 CONDUIT   1176.76     0  01:48      4.16    2.60    1.00
  YS02006561YS02001783 CONDUIT   1175.96     0  01:48      2.34    0.61    1.00
  YS02163301YS02001633 CONDUIT    930.52     0  01:44      1.18    0.87    1.00
  YS02163601YS02164001 CONDUIT   1426.58     0  01:44      1.82    1.26    1.00
  YS02164001YS02001641 CONDUIT   1425.48     0  01:44      1.81    1.95    1.00
  CC-R1                PUMP       683.00     0  00:00              1.00
  CC-R2                PUMP       683.00     0  00:00              1.00
  CC-S1                PUMP       200.00     0  00:00              1.00
  CC-S2                PUMP       200.00     0  00:00              1.00
  JK-R1                PUMP      1000.00     0  00:00              1.00
  JK-R2                PUMP      1000.00     0  00:00              1.00
  JK-S                 PUMP       300.00     0  00:00              1.00
  
  
  ***************************
  Flow Classification Summary
  ***************************
  
  -------------------------------------------------------------------------------------
                      Adjusted    ---------- Fraction of Time in Flow Class ---------- 
                       /Actual         Up    Down  Sub   Sup   Up    Down  Norm  Inlet 
  Conduit               Length    Dry  Dry   Dry   Crit  Crit  Crit  Crit  Ltd   Ctrl  
  -------------------------------------------------------------------------------------
  1                       1.00   0.00  0.00  0.00  0.00  1.00  0.00  0.00  0.42  0.00
  WS02003060WS02003069    1.00   0.00  0.00  0.00  0.97  0.03  0.00  0.00  0.72  0.00
  WS02003066WSF200        1.00   0.05  0.00  0.00  0.00  0.95  0.00  0.00  0.80  0.00
  WS02003067WS02003066    1.00   0.05  0.00  0.00  0.95  0.00  0.00  0.00  0.00  0.00
  WS02003069WS02003072    1.00   0.00  0.00  0.00  0.99  0.01  0.00  0.00  0.73  0.00
  WS02003072WS02003073    1.00   0.00  0.00  0.00  0.00  0.00  0.00  1.00  0.00  0.00
  WS02004401WS02004402    1.00   0.02  0.00  0.00  0.98  0.00  0.00  0.00  0.00  0.00
  WS02004402WS02004403    1.00   0.02  0.00  0.00  0.98  0.00  0.00  0.00  0.00  0.00
  WS02004403WS02004404    1.00   0.00  0.03  0.00  0.97  0.00  0.00  0.00  0.00  0.00
  WS02004404WS02004405    1.00   0.00  0.00  0.00  1.00  0.00  0.00  0.00  0.01  0.00
  WS02004405WS02004406    1.00   0.00  0.00  0.00  1.00  0.00  0.00  0.00  0.00  0.00
  WS02004406WS02004407    1.00   0.00  0.03  0.00  0.97  0.00  0.00  0.00  0.00  0.00
  WS02004407WS02004409    1.00   0.03  0.00  0.00  0.95  0.02  0.00  0.00  0.95  0.00
  WS02004409WS02004410    1.00   0.03  0.00  0.00  0.96  0.00  0.00  0.00  0.00  0.00
  WS02004410WS02004411    1.00   0.04  0.00  0.00  0.96  0.00  0.00  0.00  0.00  0.00
  WS02004411WS02004412    1.00   0.04  0.00  0.00  0.96  0.00  0.00  0.00  0.00  0.00
  WS02004412WS02004413    1.00   0.04  0.00  0.00  0.96  0.00  0.00  0.00  0.00  0.00
  WS02004413WS02003067    1.00   0.04  0.01  0.00  0.00  0.00  0.95  0.00  0.00  0.00
  WS02006109WS02006110    1.00   0.00  0.01  0.00  0.98  0.00  0.01  0.00  0.00  0.00
  WS02006110WS02006113    1.00   0.01  0.01  0.00  0.98  0.00  0.00  0.00  0.00  0.00
  WS02006111WS02006112    1.00   0.02  0.00  0.00  0.98  0.00  0.00  0.00  0.98  0.00
  WS02006112WS02006115    1.00   0.02  0.00  0.00  0.97  0.00  0.00  0.00  0.00  0.00
  WS02006113WS02006111    1.00   0.02  0.00  0.00  0.00  0.98  0.00  0.00  0.14  0.00
  WS02006115WS02006116    1.00   0.02  0.00  0.00  0.97  0.00  0.00  0.01  0.00  0.00
  WS02006116WS02004401    1.00   0.02  0.00  0.00  0.98  0.00  0.00  0.00  0.00  0.00
  WS02006228WS02006109    1.00   0.00  0.00  0.00  1.00  0.00  0.00  0.00  0.00  0.00
  WS02006229WS02006228    1.00   0.00  0.00  0.00  0.99  0.00  0.00  0.01  0.00  0.00
  WS02006230WS02006229    1.00   0.00  0.00  0.00  0.99  0.00  0.00  0.01  0.03  0.00
  WS02006231WS02006230    1.00   0.00  0.00  0.00  0.28  0.00  0.71  0.00  0.00  0.00
  WS02006232WS02006231    1.00   0.00  0.00  0.00  0.98  0.00  0.02  0.00  0.00  0.00
  WS02006234WS02006232    1.00   0.00  0.00  0.00  1.00  0.00  0.00  0.00  0.06  0.00
  WS02006235WS02006234    1.00   0.00  0.00  0.00  0.92  0.00  0.08  0.00  0.00  0.00
  WS02006238WS02006235    1.00   0.00  0.00  0.00  1.00  0.00  0.00  0.00  0.00  0.00
  WS02006239WS02006238    1.00   0.00  0.00  0.00  1.00  0.00  0.00  0.00  0.20  0.00
  WS02006240WS02006239    1.00   0.00  0.00  0.00  0.67  0.00  0.00  0.33  0.04  0.00
  WS02006242WS02006240    1.00   0.00  0.00  0.00  0.99  0.00  0.00  0.00  0.03  0.00
  WS02006243WS02006242    1.00   0.00  0.00  0.00  0.99  0.00  0.00  0.01  0.61  0.00
  WS02006245WS02006243    1.00   0.00  0.00  0.00  0.54  0.00  0.00  0.46  0.02  0.00
  WS02006247WS02006245    1.00   0.00  0.00  0.00  0.99  0.00  0.00  0.01  0.00  0.00
  WS02006248WS02006247    1.00   0.00  0.00  0.00  0.99  0.00  0.00  0.01  0.19  0.00
  WS02006249WS02006248    1.00   0.00  0.00  0.00  0.36  0.00  0.64  0.00  0.00  0.00
  WS02006251WS02006249    1.00   0.00  0.00  0.00  0.99  0.00  0.00  0.00  0.65  0.00
  WS02006252WS02006251    1.00   0.00  0.26  0.00  0.19  0.00  0.55  0.00  0.10  0.00
  WS02006256WS02006235    1.00   0.00  0.00  0.00  0.98  0.02  0.00  0.00  0.00  0.00
  WSF200WS02003060        1.00   0.00  0.05  0.00  0.40  0.55  0.00  0.00  0.65  0.00
  YS02001580YS02001583    1.00   0.21  0.58  0.00  0.21  0.00  0.00  0.00  0.67  0.00
  YS02001583YS02001586    1.00   0.41  0.32  0.00  0.27  0.00  0.00  0.00  0.67  0.00
  YS02001586YS02001590    1.00   0.13  0.00  0.00  0.44  0.04  0.00  0.40  0.35  0.00
  YS02001590YS02001593    1.00   0.13  0.01  0.00  0.13  0.00  0.73  0.00  0.00  0.00
  YS02001593YS02001596    1.00   0.14  0.00  0.00  0.15  0.01  0.00  0.70  0.02  0.00
  YS02001596YS02001600    1.00   0.14  0.00  0.00  0.21  0.01  0.00  0.64  0.04  0.00
  YS02001600YS02001601    1.00   0.13  0.01  0.00  0.86  0.00  0.00  0.00  0.59  0.00
  YS02001601YS02001602    1.00   0.13  0.01  0.00  0.86  0.00  0.00  0.00  0.00  0.00
  YS02001602YS02001605    1.00   0.14  0.00  0.00  0.86  0.00  0.00  0.00  0.00  0.00
  YS02001605YS02001607    1.00   0.14  0.00  0.00  0.86  0.00  0.00  0.00  0.00  0.00
  YS02001607YS02001610    1.00   0.13  0.01  0.00  0.86  0.00  0.00  0.00  0.01  0.00
  YS02001610YS02001613    1.00   0.13  0.00  0.00  0.87  0.00  0.00  0.00  0.00  0.00
  YS02001613YS02001616    1.00   0.13  0.00  0.00  0.87  0.00  0.00  0.00  0.00  0.00
  YS02001616YS02001619    1.00   0.13  0.00  0.00  0.87  0.00  0.00  0.00  0.00  0.00
  YS02001619YS02001622    1.00   0.13  0.00  0.00  0.87  0.00  0.00  0.00  0.28  0.00
  YS02001622YS02001625    1.00   0.13  0.00  0.00  0.87  0.00  0.00  0.00  0.04  0.00
  YS02001625YS02001629    1.00   0.13  0.04  0.00  0.18  0.00  0.65  0.00  0.00  0.00
  YS02001629YS02163301    1.00   0.15  0.01  0.00  0.84  0.00  0.00  0.00  0.00  0.00
  YS02001633YS02163601    1.00   0.00  0.01  0.00  0.99  0.00  0.00  0.00  0.15  0.00
  YS02001641YS02001644    1.00   0.00  0.01  0.00  0.99  0.00  0.00  0.00  0.00  0.00
  YS02001644YS02001647    1.00   0.00  0.17  0.00  0.83  0.00  0.00  0.00  0.00  0.00
  YS02001647YS02001649    1.00   0.00  0.17  0.00  0.52  0.32  0.00  0.00  0.56  0.00
  YS02001649YS02001757    1.00   0.00  0.00  0.00  0.66  0.34  0.00  0.00  0.50  0.00
  YS02001652YS02001649    1.00   0.00  0.00  0.00  0.97  0.03  0.00  0.00  0.73  0.00
  YS02001655YS02001652    1.00   0.00  0.00  0.00  0.20  0.01  0.00  0.79  0.08  0.00
  YS02001658YS02001655    1.00   0.00  0.14  0.00  0.64  0.22  0.00  0.00  0.69  0.00
  YS02001661YS02001658    1.00   0.14  0.00  0.00  0.47  0.38  0.00  0.00  0.73  0.00
  YS02001664YS02001661    1.00   0.13  0.00  0.00  0.73  0.14  0.00  0.00  0.84  0.00
  YS02001745YS02001748    1.00   0.00  0.00  0.00  0.08  0.01  0.00  0.91  0.05  0.00
  YS02001748YS02001751    1.00   0.00  0.00  0.00  0.80  0.20  0.00  0.00  0.81  0.00
  YS02001751YS02001754    1.00   0.00  0.00  0.00  0.14  0.01  0.00  0.85  0.03  0.00
  YS02001754YS02001757    1.00   0.00  0.00  0.00  1.00  0.00  0.00  0.00  0.84  0.00
  YS02001757CaochengTiaoxuchi    1.00   0.00  0.00  0.00  0.83  0.17  0.00  0.00  0.77  0.00
  YS02001759YS02001757    1.00   0.00  0.00  0.00  1.00  0.00  0.00  0.00  0.61  0.00
  YS02001762YS02001759    1.00   0.00  0.00  0.00  1.00  0.00  0.00  0.00  0.03  0.00
  YS02001765YS02001762    1.00   0.00  0.00  0.00  1.00  0.00  0.00  0.00  0.72  0.00
  YS02001767YS02001765    1.00   0.00  0.00  0.00  1.00  0.00  0.00  0.00  0.00  0.00
  YS02001770YS02001767    1.00   0.00  0.00  0.00  1.00  0.00  0.00  0.00  0.00  0.00
  YS02001774YS02001770    1.00   0.00  0.13  0.00  0.71  0.00  0.16  0.00  0.03  0.00
  YS02001779YS02001774    1.00   0.00  0.00  0.00  1.00  0.00  0.00  0.00  0.78  0.00
  YS02001783YS02001784    1.00   0.00  0.18  0.00  0.82  0.00  0.00  0.00  0.55  0.00
  YS02001784YS02001785    1.00   0.00  0.00  0.00  1.00  0.00  0.00  0.00  0.16  0.00
  YS02001786YS02001788    1.00   0.00  0.00  0.00  0.80  0.20  0.00  0.00  0.00  0.00
  YS02001788YS02001790    1.00   0.00  0.00  0.00  0.22  0.78  0.00  0.00  0.80  0.00
  YS02001790YS02001791    1.00   0.00  0.00  0.00  0.01  0.99  0.00  0.00  0.16  0.00
  YS02001791YS02001793    1.00   0.00  0.00  0.00  0.00  1.00  0.00  0.00  0.01  0.00
  YS02001793JiankangQianchi    1.00   0.00  0.00  0.00  0.63  0.36  0.00  0.00  0.94  0.00
  YS02001882YS02001884    1.00   0.15  0.01  0.00  0.84  0.00  0.00  0.00  0.00  0.00
  YS02001884YS02001887    1.00   0.06  0.05  0.00  0.89  0.00  0.00  0.00  0.00  0.00
  YS02001887YS02001890    1.00   0.00  0.00  0.00  0.97  0.00  0.03  0.00  0.00  0.00
  YS02001890YS02001895    1.00   0.00  0.16  0.00  0.84  0.00  0.00  0.00  0.00  0.00
  YS02001895YS02001898    1.00   0.16  0.00  0.00  0.82  0.00  0.02  0.00  0.00  0.00
  YS02001898YS02001901    1.00   0.16  0.00  0.00  0.83  0.00  0.00  0.00  0.01  0.00
  YS02001901YS02001904    1.00   0.16  0.00  0.00  0.84  0.00  0.00  0.00  0.00  0.00
  YS02001904YS02001907    1.00   0.00  0.16  0.00  0.84  0.00  0.00  0.00  0.00  0.00
  YS02001907YS02006553    1.00   0.00  0.02  0.00  0.98  0.00  0.00  0.00  0.00  0.00
  YS02001910YS02001907    1.00   0.00  0.00  0.00  0.97  0.00  0.00  0.03  0.12  0.00
  YS02001915YS02001910    1.00   0.00  0.00  0.00  0.97  0.03  0.00  0.00  0.15  0.00
  YS02001918YS02001915    1.00   0.00  0.01  0.00  0.98  0.02  0.00  0.00  0.73  0.00
  YS02001920YS02001918    1.00   0.00  0.01  0.00  0.99  0.00  0.00  0.00  0.00  0.00
  YS02001923YS02001920    1.00   0.00  0.00  0.00  1.00  0.00  0.00  0.00  0.91  0.00
  YS02001926YS02001923    1.00   0.00  0.07  0.00  0.07  0.00  0.85  0.00  0.00  0.00
  YS02001929YS02001926    1.00   0.00  0.13  0.00  0.87  0.00  0.00  0.00  0.81  0.00
  YS02006553YS02006556    1.00   0.01  0.00  0.00  0.99  0.00  0.00  0.00  0.03  0.00
  YS02006556YS02006558    1.00   0.00  0.00  0.00  1.00  0.00  0.00  0.00  0.00  0.00
  YS02006558YS02006561    1.00   0.17  0.00  0.00  0.07  0.75  0.00  0.00  0.18  0.00
  YS02006561YS02001783    1.00   0.17  0.00  0.00  0.10  0.72  0.00  0.00  0.68  0.00
  YS02163301YS02001633    1.00   0.00  0.15  0.00  0.85  0.00  0.00  0.00  0.00  0.00
  YS02163601YS02164001    1.00   0.00  0.08  0.00  0.92  0.00  0.00  0.00  0.00  0.00
  YS02164001YS02001641    1.00   0.01  0.08  0.00  0.92  0.00  0.00  0.00  0.06  0.00
  
  
  *************************
  Conduit Surcharge Summary
  *************************
  
  ----------------------------------------------------------------------------
                                                           Hours        Hours 
                         --------- Hours Full --------   Above Full   Capacity
  Conduit                Both Ends  Upstream  Dnstream   Normal Flow   Limited
  ----------------------------------------------------------------------------
  WS02003072WS02003073        0.01      0.01      0.01      1.70         0.01
  WS02004404WS02004405        0.01      0.01      0.01      2.98         0.01
  WS02004405WS02004406        0.01      0.01      0.01      1.13         0.01
  WS02006109WS02006110        0.53      0.53      2.08      0.82         0.01
  WS02006110WS02006113        0.01      0.01      2.05      0.01         0.01
  WS02006111WS02006112        0.01      0.01      2.18      0.01         0.01
  WS02006112WS02006115        0.01      0.01      1.31      0.01         0.01
  WS02006228WS02006109        1.96      2.09      1.96      2.48         1.96
  WS02006229WS02006228        1.94      1.98      1.94      2.34         1.91
  WS02006230WS02006229        2.22      2.28      2.22      3.40         2.22
  WS02006231WS02006230        0.58      0.58      1.38      3.05         0.01
  WS02006232WS02006231        1.15      1.15      2.12      1.23         0.01
  WS02006234WS02006232        1.74      1.74      2.12      1.18         1.07
  WS02006235WS02006234        1.50      1.55      1.76      2.91         0.12
  WS02006238WS02006235        1.84      1.85      2.14      0.01         0.05
  WS02006239WS02006238        1.97      2.11      1.98      2.32         1.63
  WS02006240WS02006239        1.92      2.02      1.92      2.33         1.49
  WS02006242WS02006240        2.00      2.00      2.23      2.42         0.02
  WS02006243WS02006242        2.04      2.04      2.17      0.01         0.27
  WS02006245WS02006243        2.01      2.04      2.02      1.89         1.20
  WS02006247WS02006245        2.02      2.08      2.02      2.50         1.88
  WS02006248WS02006247        2.02      2.02      2.06      0.01         0.30
  WS02006249WS02006248        2.00      2.00      2.04      2.49         0.01
  WS02006251WS02006249        2.04      2.05      2.04      2.45         1.82
  WS02006252WS02006251        2.50      2.50      2.50      2.50         0.01
  WS02006256WS02006235        2.77      2.98      5.84      1.70         0.02
  YS02001580YS02001583        0.76      0.76      0.78      0.01         0.01
  YS02001583YS02001586        0.76      0.76      0.86      0.01         0.01
  YS02001586YS02001590        0.86      0.86      0.93      0.01         0.01
  YS02001590YS02001593        0.94      0.94      0.95      1.03         0.01
  YS02001593YS02001596        0.94      0.94      1.04      0.01         0.01
  YS02001596YS02001600        1.09      1.09      1.21      0.01         0.01
  YS02001600YS02001601        1.28      1.28      1.56      0.01         0.01
  YS02001601YS02001602        1.48      1.48      1.60      1.24         0.01
  YS02001602YS02001605        1.43      1.43      1.48      2.30         0.01
  YS02001605YS02001607        1.37      1.43      1.37      1.54         1.37
  YS02001607YS02001610        0.87      0.87      0.89      0.01         0.01
  YS02001610YS02001613        0.85      0.85      0.89      0.01         0.01
  YS02001613YS02001616        0.81      0.81      0.85      0.01         0.01
  YS02001616YS02001619        0.80      0.80      0.81      0.08         0.08
  YS02001619YS02001622        0.79      0.80      0.79      0.98         0.77
  YS02001622YS02001625        0.79      0.79      0.99      0.01         0.01
  YS02001625YS02001629        0.71      0.71      0.99      0.01         0.01
  YS02001629YS02163301        0.96      0.96      0.97      0.38         0.36
  YS02001633YS02163601        0.99      0.99      1.02      0.54         0.54
  YS02001641YS02001644        0.84      0.88      0.84      1.62         0.83
  YS02001644YS02001647        0.60      0.60      0.84      0.05         0.01
  YS02001647YS02001649        0.60      0.60      0.69      0.01         0.01
  YS02001649YS02001757        0.69      0.69      0.72      0.44         0.39
  YS02001652YS02001649        0.53      0.53      0.69      0.01         0.01
  YS02001655YS02001652        0.35      0.35      0.49      0.01         0.01
  YS02001658YS02001655        0.24      0.24      0.35      0.01         0.01
  YS02001661YS02001658        0.12      0.12      0.24      0.01         0.01
  YS02001664YS02001661        0.01      0.01      0.14      0.01         0.01
  YS02001745YS02001748        0.01      0.01      0.15      0.01         0.01
  YS02001748YS02001751        0.21      0.21      0.26      0.01         0.01
  YS02001751YS02001754        0.26      0.26      0.37      0.01         0.01
  YS02001754YS02001757        0.40      0.40      0.72      0.01         0.01
  YS02001757CaochengTiaoxuchi        0.40      0.72      0.91      0.55         0.19
  YS02001759YS02001757        0.62      0.62      0.72      0.14         0.13
  YS02001762YS02001759        0.59      0.59      0.62      0.01         0.03
  YS02001765YS02001762        0.55      0.55      0.59      0.01         0.01
  YS02001767YS02001765        0.51      0.51      0.55      0.04         0.05
  YS02001770YS02001767        0.51      0.52      0.51      0.66         0.47
  YS02001774YS02001770        0.49      0.49      0.58      0.01         0.01
  YS02001779YS02001774        0.38      0.38      0.58      0.01         0.01
  YS02001783YS02001784        0.62      0.65      0.62      0.79         0.62
  YS02001784YS02001785        0.52      0.62      0.52      1.04         0.52
  YS02001786YS02001788        0.01      0.52      0.01      0.89         0.01
  YS02001790YS02001791        0.01      0.01      0.01      0.61         0.01
  YS02001882YS02001884        0.59      0.59      0.60      0.01         0.01
  YS02001884YS02001887        0.63      0.63      0.64      0.01         0.01
  YS02001887YS02001890        0.65      0.65      0.66      0.19         0.01
  YS02001890YS02001895        0.58      0.58      0.68      0.01         0.01
  YS02001895YS02001898        0.57      0.57      0.58      0.01         0.01
  YS02001898YS02001901        0.58      0.58      0.62      0.01         0.01
  YS02001901YS02001904        0.61      0.61      0.62      0.01         0.01
  YS02001904YS02001907        0.61      0.61      0.87      0.01         0.01
  YS02001907YS02006553        1.04      1.04      1.12      0.01         0.01
  YS02001910YS02001907        0.68      0.68      0.85      0.06         0.07
  YS02001915YS02001910        0.59      0.59      0.68      0.01         0.01
  YS02001918YS02001915        0.50      0.50      0.59      0.01         0.01
  YS02001920YS02001918        0.50      0.50      0.52      0.01         0.01
  YS02001923YS02001920        0.46      0.46      0.52      0.01         0.01
  YS02001926YS02001923        0.20      0.20      0.23      0.01         0.01
  YS02001929YS02001926        0.09      0.09      0.23      0.01         0.01
  YS02006553YS02006556        0.77      0.77      0.87      0.01         0.01
  YS02006556YS02006558        0.82      0.82      0.89      0.01         0.01
  YS02006558YS02006561        0.54      0.76      0.54      0.99         0.54
  YS02006561YS02001783        0.46      0.46      0.65      0.01         0.01
  YS02163301YS02001633        0.97      0.97      1.01      0.01         0.01
  YS02163601YS02164001        0.90      0.90      1.02      0.25         0.01
  YS02164001YS02001641        0.88      0.90      0.88      0.82         0.66
  
  
  ***************
  Pumping Summary
  ***************
  
  ---------------------------------------------------------------------------------------------------------
                                                  Min       Avg       Max     Total     Power    % Time Off
                        Percent   Number of      Flow      Flow      Flow    Volume     Usage    Pump Curve
  Pump                 Utilized   Start-Ups       LPS       LPS       LPS  10^6 ltr     Kw-hr    Low   High
  ---------------------------------------------------------------------------------------------------------
  CC-R1                   27.26           2      0.00    683.00    683.00     5.306     91.45    0.0   57.7
  CC-R2                   27.26           2      0.00    683.00    683.00     5.306     91.45    0.0   57.7
  CC-S1                   31.62           3      0.00    200.00    200.00     1.802     12.92    0.0   22.6
  CC-S2                   31.62           3      0.00    200.00    200.00     1.802     12.92    0.0   22.6
  JK-R1                    4.99          64      0.00   1000.00   1000.00     1.421      4.48    0.0    0.0
  JK-R2                    4.99          64      0.00   1000.00   1000.00     1.421      4.48    0.0    0.0
  JK-S                    21.03          98      0.00    300.00    300.00     1.798     40.01    0.0    0.0
  

  Analysis begun on:  Tue Apr 22 10:18:36 2025
  Analysis ended on:  Tue Apr 22 10:18:38 2025
  Total elapsed time: 00:00:02