
  EPA STORM WATER MANAGEMENT MODEL - VERSION 5.2 (Build 5.2.4)
  PYSWMM TOOLKIT API - VERSION v1.0 (2023-11-27)
  ------------------------------------------------------------

  WARNING 04: minimum elevation drop used for Conduit WS02004404WS02004405
  WARNING 03: negative offset ignored for Link YS02001904YS02001907
  
  ****************
  Analysis Options
  ****************
  Flow Units ............... LPS
  Process Models:
    Rainfall/Runoff ........ YES
    RDII ................... NO
    Snowmelt ............... NO
    Groundwater ............ NO
    Flow Routing ........... YES
    Ponding Allowed ........ NO
    Water Quality .......... NO
  Infiltration Method ...... HORTON
  Flow Routing Method ...... DYNWAVE
  Surcharge Method ......... EXTRAN
  Starting Date ............ 08/28/2015 08:00:00
  Ending Date .............. 08/28/2015 16:00:00
  Antecedent Dry Days ...... 8.0
  Report Time Step ......... 00:01:00
  Wet Time Step ............ 00:01:00
  Dry Time Step ............ 00:01:00
  Routing Time Step ........ 30.00 sec
  Variable Time Step ....... YES
  Maximum Trials ........... 8
  Number of Threads ........ 4
  Head Tolerance ........... 0.001500 m
  
  
  **************************        Volume         Depth
  Runoff Quantity Continuity     hectare-m            mm
  **************************     ---------       -------
  Total Precipitation ......         5.618       169.381
  Evaporation Loss .........         0.000         0.000
  Infiltration Loss ........         0.112         3.371
  Surface Runoff ...........         5.475       165.053
  Final Storage ............         0.033         1.004
  Continuity Error (%) .....        -0.027
  
  
  **************************        Volume        Volume
  Flow Routing Continuity        hectare-m      10^6 ltr
  **************************     ---------     ---------
  Dry Weather Inflow .......         0.025         0.248
  Wet Weather Inflow .......         5.473        54.731
  Groundwater Inflow .......         0.000         0.000
  RDII Inflow ..............         0.000         0.000
  External Inflow ..........         0.083         0.825
  External Outflow .........         3.171        31.711
  Flooding Loss ............         2.587        25.870
  Evaporation Loss .........         0.000         0.000
  Exfiltration Loss ........         0.000         0.000
  Initial Stored Volume ....         0.243         2.431
  Final Stored Volume ......         0.084         0.835
  Continuity Error (%) .....        -0.312
  
  
  *************************
  Highest Continuity Errors
  *************************
  Node YS02001583 (-16.43%)
  Node YS02001884 (4.86%)
  Node WS02006256 (-4.34%)
  
  
  ***************************
  Time-Step Critical Elements
  ***************************
  Link WS02006238WS02006235 (22.04%)
  Link WS02004404WS02004405 (19.72%)
  Link YS02001791YS02001793 (15.74%)
  Link YS02001793JiankangQianchi (11.50%)
  Link WS02003066WSF200 (9.96%)
  
  
  ********************************
  Highest Flow Instability Indexes
  ********************************
  Link YS02001602YS02001605 (52)
  Link WS02006113WS02006111 (45)
  Link YS02001605YS02001607 (45)
  Link YS02001607YS02001610 (44)
  Link WS02006252WS02006251 (41)
  
  
  *********************************
  Most Frequent Nonconverging Nodes
  *********************************
  Node CC-1 (52.11%)
  Node CC-2 (52.11%)
  Node JK-1 (52.11%)
  Node JK-2 (52.11%)
  Node WSC (52.11%)
  
  
  *************************
  Routing Time Step Summary
  *************************
  Minimum Time Step           :     0.01 sec
  Average Time Step           :     2.50 sec
  Maximum Time Step           :     6.43 sec
  % of Time in Steady State   :     0.00
  Average Iterations per Step :     5.49
  % of Steps Not Converging   :    52.11
  Time Step Frequencies       :
     30.000 - 13.228 sec      :     0.00 %
     13.228 -  5.833 sec      :    11.42 %
      5.833 -  2.572 sec      :    20.96 %
      2.572 -  1.134 sec      :    49.23 %
      1.134 -  0.500 sec      :    18.38 %
  
  
  ***************************
  Subcatchment Runoff Summary
  ***************************
  
  ------------------------------------------------------------------------------------------------------------------------------
                            Total      Total      Total      Total     Imperv       Perv      Total       Total     Peak  Runoff
                           Precip      Runon       Evap      Infil     Runoff     Runoff     Runoff      Runoff   Runoff   Coeff
  Subcatchment                 mm         mm         mm         mm         mm         mm         mm    10^6 ltr      LPS
  ------------------------------------------------------------------------------------------------------------------------------
  sub60                    169.38       0.00       0.00       1.98     147.90      18.35     166.25        2.18   424.10   0.981
  sub61                    169.38       0.00       0.00       2.89     139.50      25.91     165.41        3.04   589.69   0.977
  sub62                    169.38       0.00       0.00       1.32     154.57      12.23     166.81        4.57   853.87   0.985
  sub63                    169.38       0.00       0.00       5.39     119.33      43.74     163.06        3.70   694.41   0.963
  sub64                    169.38       0.00       0.00       2.72     142.79      22.69     165.48        3.97   722.02   0.977
  sub65                    169.38       0.00       0.00       2.35     146.12      19.67     165.79        4.56   817.55   0.979
  sub66                    169.38       0.00       0.00       6.71     119.18      42.41     161.60        7.54  1232.80   0.954
  sub67                    169.38       0.00       0.00       1.25     154.65      12.31     166.95        3.11   640.21   0.986
  sub68                    169.38       0.00       0.00       2.40     144.52      21.32     165.84        4.56   867.49   0.979
  sub69                    169.38       0.00       0.00       2.22     143.88      23.19     167.07        6.18  1091.59   0.986
  sub70                    169.38       0.00       0.00       7.40     111.62      50.20     161.82        4.67   746.10   0.955
  sub71                    169.38       0.00       0.00       1.36     154.52      12.19     166.71        4.36   783.64   0.984
  sub72                    169.38       0.00       0.00       1.22     156.12      10.64     166.77        2.29   395.64   0.985
  
  
  ******************
  Node Depth Summary
  ******************
  
  ---------------------------------------------------------------------------------
                                 Average  Maximum  Maximum  Time of Max    Reported
                                   Depth    Depth      HGL   Occurrence   Max Depth
  Node                 Type       Meters   Meters   Meters  days hr:min      Meters
  ---------------------------------------------------------------------------------
  WS02003060           JUNCTION     0.27     0.38     5.31     0  03:26        0.38
  WS02003066           JUNCTION     0.22     0.29     5.85     0  03:26        0.29
  WS02003067           JUNCTION     0.54     0.70     6.02     0  03:22        0.70
  WS02003069           JUNCTION     0.30     0.43     5.01     0  03:27        0.43
  WS02003072           JUNCTION     0.36     0.50     4.87     0  03:28        0.50
  WS02003073           JUNCTION     0.21     0.30     4.36     0  03:29        0.29
  WS02004401           JUNCTION     0.67     0.87     6.87     0  03:20        0.87
  WS02004402           JUNCTION     0.70     0.90     6.86     0  03:20        0.89
  WS02004403           JUNCTION     0.71     0.91     6.84     0  03:25        0.91
  WS02004404           JUNCTION     0.79     1.00     6.85     0  03:24        0.99
  WS02004405           JUNCTION     0.77     0.96     6.81     0  03:24        0.96
  WS02004406           JUNCTION     0.78     0.95     6.78     0  03:21        0.95
  WS02004407           JUNCTION     0.21     0.29     6.61     0  03:21        0.29
  WS02004409           JUNCTION     0.46     0.66     6.43     0  03:25        0.66
  WS02004410           JUNCTION     0.48     0.67     6.39     0  03:21        0.67
  WS02004411           JUNCTION     0.50     0.68     6.36     0  03:21        0.68
  WS02004412           JUNCTION     0.51     0.69     6.33     0  03:26        0.69
  WS02004413           JUNCTION     0.67     0.85     6.32     0  03:26        0.85
  WS02006109           JUNCTION     0.75     1.43     8.05     0  03:28        1.08
  WS02006110           JUNCTION     0.74     1.48     8.06     0  03:28        1.05
  WS02006111           JUNCTION     0.21     0.29     6.99     0  03:22        0.29
  WS02006112           JUNCTION     0.84     1.10     6.98     0  03:33        1.07
  WS02006113           JUNCTION     0.33     0.46     7.35     0  01:56        0.45
  WS02006115           JUNCTION     0.56     0.77     6.90     0  03:20        0.77
  WS02006116           JUNCTION     0.64     0.85     6.89     0  03:20        0.85
  WS02006228           JUNCTION     0.76     2.34     8.99     0  03:28        2.34
  WS02006229           JUNCTION     0.74     2.76     9.46     0  03:28        2.76
  WS02006230           JUNCTION     0.78     2.65     9.39     0  03:28        2.65
  WS02006231           JUNCTION     0.55     2.24     9.36     0  01:23        2.24
  WS02006232           JUNCTION     0.70     2.18     9.22     0  01:25        2.18
  WS02006234           JUNCTION     0.65     1.96     9.12     0  01:18        1.96
  WS02006235           JUNCTION     0.70     2.00     9.16     0  01:18        2.00
  WS02006238           JUNCTION     0.73     2.15     9.29     0  01:18        2.15
  WS02006239           JUNCTION     0.71     2.03     9.24     0  01:18        2.03
  WS02006240           JUNCTION     0.68     2.10     9.39     0  01:56        2.10
  WS02006242           JUNCTION     0.76     1.55     8.82     0  01:16        1.55
  WS02006243           JUNCTION     0.69     1.48     8.90     0  01:18        1.48
  WS02006245           JUNCTION     0.70     1.56     9.04     0  01:56        1.56
  WS02006247           JUNCTION     0.72     1.47     8.97     0  01:56        1.47
  WS02006248           JUNCTION     0.69     1.10     8.69     0  01:15        1.10
  WS02006249           JUNCTION     0.72     1.09     8.69     0  01:15        1.09
  WS02006251           JUNCTION     0.73     1.45     9.12     0  03:42        1.45
  WS02006252           JUNCTION     0.45     1.50     9.74     0  00:00        1.02
  WS02006256           JUNCTION     1.33     2.35     9.28     0  00:00        2.35
  WSF200               JUNCTION     0.20     0.29     5.52     0  03:26        0.29
  YS02001580           JUNCTION     0.35     1.05     9.59     0  01:06        0.80
  YS02001583           JUNCTION     0.38     1.14     9.64     0  01:06        0.83
  YS02001586           JUNCTION     0.55     1.13     9.30     0  01:05        1.13
  YS02001590           JUNCTION     0.69     1.40     9.26     0  01:06        1.39
  YS02001593           JUNCTION     0.62     1.36     9.22     0  01:56        1.36
  YS02001596           JUNCTION     0.80     1.71     9.13     0  01:56        1.71
  YS02001600           JUNCTION     0.92     1.87     9.00     0  01:05        1.86
  YS02001601           JUNCTION     1.10     2.06     8.90     0  01:05        2.06
  YS02001602           JUNCTION     0.98     1.87     8.77     0  01:07        1.87
  YS02001605           JUNCTION     0.93     1.78     8.68     0  01:07        1.78
  YS02001607           JUNCTION     0.88     1.68     8.53     0  01:07        1.68
  YS02001610           JUNCTION     0.92     1.68     8.48     0  01:07        1.68
  YS02001613           JUNCTION     0.88     1.70     8.54     0  01:07        1.70
  YS02001616           JUNCTION     0.82     1.61     8.52     0  01:07        1.61
  YS02001619           JUNCTION     0.80     1.61     8.54     0  01:07        1.61
  YS02001622           JUNCTION     0.79     1.60     8.50     0  01:09        1.60
  YS02001625           JUNCTION     1.03     1.78     8.38     0  01:07        1.78
  YS02001629           JUNCTION     0.98     1.85     8.40     0  01:07        1.85
  YS02001633           JUNCTION     1.05     2.08     8.53     0  01:09        2.08
  YS02001641           JUNCTION     1.03     2.06     8.50     0  01:35        2.06
  YS02001644           JUNCTION     1.02     1.92     8.35     0  01:07        1.92
  YS02001647           JUNCTION     0.82     1.90     8.51     0  01:08        1.90
  YS02001649           JUNCTION     0.92     2.05     8.44     0  01:10        2.05
  YS02001652           JUNCTION     0.79     2.02     8.62     0  01:10        2.02
  YS02001655           JUNCTION     0.65     2.17     9.02     0  01:09        1.74
  YS02001658           JUNCTION     0.50     1.77     8.91     0  01:09        1.31
  YS02001661           JUNCTION     0.41     1.89     9.30     0  02:20        1.07
  YS02001664           JUNCTION     0.15     0.64     8.56     0  01:10        0.52
  YS02001745           JUNCTION     0.28     1.00     8.51     0  01:10        0.90
  YS02001748           JUNCTION     0.48     2.26     9.34     0  01:09        1.38
  YS02001751           JUNCTION     0.59     2.06     8.94     0  01:09        1.75
  YS02001754           JUNCTION     0.74     2.03     8.63     0  01:10        2.03
  YS02001757           JUNCTION     0.96     2.13     8.39     0  01:10        2.12
  YS02001759           JUNCTION     0.90     2.17     8.54     0  01:10        2.17
  YS02001762           JUNCTION     0.89     2.15     8.55     0  01:10        2.15
  YS02001765           JUNCTION     0.86     2.10     8.55     0  01:10        2.10
  YS02001767           JUNCTION     0.85     2.03     8.52     0  01:10        2.03
  YS02001770           JUNCTION     0.86     1.95     8.44     0  01:08        1.95
  YS02001774           JUNCTION     0.92     2.03     8.45     0  01:08        2.02
  YS02001779           JUNCTION     0.73     1.68     8.37     0  01:08        1.68
  YS02001783           JUNCTION     0.58     1.30     7.44     0  01:08        1.24
  YS02001784           JUNCTION     0.55     1.18     7.25     0  01:08        1.13
  YS02001786           JUNCTION     0.44     1.00     7.03     0  01:07        0.87
  YS02001788           JUNCTION     0.31     0.62     6.60     0  01:08        0.62
  YS02001790           JUNCTION     0.36     0.72     6.37     0  02:22        0.72
  YS02001791           JUNCTION     0.22     0.44     5.91     0  01:49        0.44
  YS02001793           JUNCTION     0.11     0.25     5.08     0  02:35        0.24
  YS02001882           JUNCTION     0.75     1.83     8.55     0  01:07        1.67
  YS02001884           JUNCTION     0.84     1.93     8.55     0  01:07        1.76
  YS02001887           JUNCTION     0.91     1.95     8.48     0  01:07        1.86
  YS02001890           JUNCTION     0.94     1.81     8.32     0  01:07        1.81
  YS02001895           JUNCTION     0.72     1.75     8.50     0  01:07        1.58
  YS02001898           JUNCTION     0.72     1.77     8.51     0  01:07        1.59
  YS02001901           JUNCTION     0.83     1.78     8.39     0  01:07        1.70
  YS02001904           JUNCTION     0.81     1.65     8.28     0  01:08        1.64
  YS02001907           JUNCTION     1.11     1.96     8.25     0  01:07        1.96
  YS02001910           JUNCTION     0.94     2.02     8.53     0  01:07        1.92
  YS02001915           JUNCTION     0.77     2.00     8.72     0  01:07        1.81
  YS02001918           JUNCTION     0.57     1.81     8.88     0  01:07        1.50
  YS02001920           JUNCTION     0.64     2.14     9.15     0  01:07        1.48
  YS02001923           JUNCTION     0.48     2.03     9.29     0  01:08        1.48
  YS02001926           JUNCTION     0.43     1.90     9.35     0  01:08        1.23
  YS02001929           JUNCTION     0.29     1.78     9.47     0  01:08        1.05
  YS02006553           JUNCTION     1.11     2.00     8.28     0  01:35        2.00
  YS02006556           JUNCTION     1.08     2.01     8.32     0  01:35        2.01
  YS02006558           JUNCTION     1.12     2.05     8.32     0  01:35        2.05
  YS02006561           JUNCTION     0.40     0.96     7.62     0  01:08        0.92
  YS02163301           JUNCTION     1.00     1.97     8.49     0  01:35        1.97
  YS02163601           JUNCTION     1.09     2.08     8.48     0  01:09        2.08
  YS02164001           JUNCTION     1.02     2.10     8.56     0  01:56        2.10
  CC-1                 OUTFALL      0.00     0.00     0.00     0  00:00        0.00
  CC-2                 OUTFALL      0.00     0.00     0.00     0  00:00        0.00
  JK-1                 OUTFALL      0.00     0.00     0.00     0  00:00        0.00
  JK-2                 OUTFALL      0.00     0.00     0.00     0  00:00        0.00
  WSC                  OUTFALL      0.21     0.30     0.97     0  03:29        0.29
  CC-storage           STORAGE      1.03     2.26     7.76     0  03:02        2.26
  JK-storage           STORAGE      0.22     2.99     3.79     0  00:00        0.68
  
  
  *******************
  Node Inflow Summary
  *******************
  
  -------------------------------------------------------------------------------------------------
                                  Maximum  Maximum                  Lateral       Total        Flow
                                  Lateral    Total  Time of Max      Inflow      Inflow     Balance
                                   Inflow   Inflow   Occurrence      Volume      Volume       Error
  Node                 Type           LPS      LPS  days hr:min    10^6 ltr    10^6 ltr     Percent
  -------------------------------------------------------------------------------------------------
  WS02003060           JUNCTION     16.53   544.82     0  03:27       0.471        7.04       0.029
  WS02003066           JUNCTION      0.00   526.80     0  03:22           0        6.57       0.022
  WS02003067           JUNCTION      0.00   526.59     0  03:22           0        6.57       0.062
  WS02003069           JUNCTION      0.32   543.98     0  03:27     0.00912        7.05       0.055
  WS02003072           JUNCTION      0.00   544.38     0  03:28           0        7.04       0.101
  WS02003073           JUNCTION      1.82   546.01     0  03:28      0.0519        7.09       0.078
  WS02004401           JUNCTION      0.00   540.14     0  03:29           0        6.67       0.153
  WS02004402           JUNCTION      0.00   536.99     0  03:27           0        6.66       0.156
  WS02004403           JUNCTION      0.00   536.91     0  03:29           0        6.65       0.152
  WS02004404           JUNCTION      0.16   545.37     0  02:24     0.00462        6.64       0.087
  WS02004405           JUNCTION      0.04   591.67     0  03:29     0.00109        6.64       0.116
  WS02004406           JUNCTION      0.00   536.96     0  03:21           0        6.63       0.315
  WS02004407           JUNCTION      0.00   532.41     0  03:21           0        6.61       0.016
  WS02004409           JUNCTION      0.00   531.64     0  03:21           0        6.61       0.040
  WS02004410           JUNCTION      0.00   531.29     0  03:21           0         6.6       0.067
  WS02004411           JUNCTION      0.00   530.57     0  03:25           0         6.6       0.084
  WS02004412           JUNCTION      0.00   528.12     0  03:22           0        6.59       0.111
  WS02004413           JUNCTION      0.00   527.60     0  03:26           0        6.59       0.206
  WS02006109           JUNCTION      1.23   599.37     0  03:28      0.0351        6.71       0.139
  WS02006110           JUNCTION      0.00   610.64     0  03:28           0         6.7       0.069
  WS02006111           JUNCTION      0.00   558.94     0  03:19           0        6.69       0.012
  WS02006112           JUNCTION      0.00   543.42     0  03:22           0        6.69       0.310
  WS02006113           JUNCTION      0.00   584.40     0  03:28           0         6.7       0.033
  WS02006115           JUNCTION      0.00   549.80     0  03:22           0        6.67       0.106
  WS02006116           JUNCTION      0.00   541.70     0  03:23           0        6.67      -0.009
  WS02006228           JUNCTION      0.00   591.06     0  03:28           0        6.68       0.055
  WS02006229           JUNCTION      0.00   589.91     0  03:28           0        6.69       0.083
  WS02006230           JUNCTION     10.28   596.01     0  03:20       0.293        6.68      -0.033
  WS02006231           JUNCTION      0.00   590.06     0  01:15           0        6.38      -0.182
  WS02006232           JUNCTION      0.00   587.65     0  01:15           0         6.4       0.342
  WS02006234           JUNCTION      0.00   580.86     0  01:15           0        6.37      -0.442
  WS02006235           JUNCTION      0.00   586.07     0  01:12           0        6.48       0.235
  WS02006238           JUNCTION      0.00   427.09     0  03:29           0        4.98       0.058
  WS02006239           JUNCTION      0.00   427.74     0  04:23           0        4.91      -0.044
  WS02006240           JUNCTION      0.00   426.65     0  04:23           0        4.87       0.051
  WS02006242           JUNCTION      0.00   426.40     0  04:23           0        4.86      -0.011
  WS02006243           JUNCTION      0.00   425.77     0  04:23           0        4.84      -0.105
  WS02006245           JUNCTION      0.00   426.29     0  04:10           0        4.85       0.212
  WS02006247           JUNCTION      0.00   425.93     0  04:10           0        4.86       0.026
  WS02006248           JUNCTION      0.00   427.37     0  04:10           0        4.88       0.072
  WS02006249           JUNCTION      0.00   488.52     0  01:09           0        5.22       0.185
  WS02006251           JUNCTION      0.08   409.74     0  03:42     0.00219        5.22      -0.014
  WS02006252           JUNCTION      0.00   400.00     0  00:00           0        5.22      -0.002
  WS02006256           JUNCTION      0.00   332.36     0  01:23           0        2.39      -4.161
  WSF200               JUNCTION      0.00   526.93     0  03:23           0        6.57       0.005
  YS02001580           JUNCTION      0.00   267.34     0  01:06           0     0.00435      -8.264
  YS02001583           JUNCTION      0.00   293.27     0  01:05           0      0.0147     -14.112
  YS02001586           JUNCTION    746.10   746.10     0  02:22        4.67        4.69       0.044
  YS02001590           JUNCTION      0.00   318.10     0  01:35           0        2.77      -0.022
  YS02001593           JUNCTION      0.00   318.04     0  02:20           0        2.77       0.002
  YS02001596           JUNCTION      0.00   317.97     0  02:38           0        2.77      -0.010
  YS02001600           JUNCTION      0.00   318.11     0  02:38           0        2.78       0.038
  YS02001601           JUNCTION   1091.59  1409.21     0  01:41        6.18        8.96       0.013
  YS02001602           JUNCTION      0.00   618.85     0  01:06           0         3.7       0.018
  YS02001605           JUNCTION      0.00   618.58     0  01:06           0        3.26       0.033
  YS02001607           JUNCTION      0.00   618.17     0  01:06           0        3.25       0.029
  YS02001610           JUNCTION      0.00   688.70     0  01:06           0        4.33       0.055
  YS02001613           JUNCTION      0.00   615.03     0  01:06           0        2.18       0.041
  YS02001616           JUNCTION      0.00   577.59     0  01:06           0        2.19      -0.014
  YS02001619           JUNCTION   1232.80  1232.80     0  02:21        7.53        8.64       0.000
  YS02001622           JUNCTION      0.00  1002.10     0  01:06           0        7.55       0.001
  YS02001625           JUNCTION      0.00  1218.50     0  01:41           0        8.54       0.074
  YS02001629           JUNCTION      0.00   974.73     0  01:29           0        3.44       0.063
  YS02001633           JUNCTION    817.75  1371.34     0  01:30        4.57        7.01       0.042
  YS02001641           JUNCTION      0.00  1372.20     0  01:30           0        6.01       0.043
  YS02001644           JUNCTION    722.05  1871.55     0  01:08        3.97        9.97       0.027
  YS02001647           JUNCTION      0.00  1880.37     0  01:08           0        8.19       0.002
  YS02001649           JUNCTION      0.00  2172.50     0  01:08           0        11.9       0.003
  YS02001652           JUNCTION      0.00   813.30     0  01:11           0        3.72      -0.142
  YS02001655           JUNCTION      0.15   819.97     0  01:09     0.00439        3.72       0.082
  YS02001658           JUNCTION      0.00   814.51     0  01:11           0        3.72       0.014
  YS02001661           JUNCTION      0.00   858.69     0  02:19           0         3.7      -0.463
  YS02001664           JUNCTION    694.41   694.41     0  01:40         3.7         3.7       0.023
  YS02001745           JUNCTION    424.11   636.48     0  01:09        2.18        2.19       0.111
  YS02001748           JUNCTION      0.04   645.37     0  01:09     0.00128        2.19      -0.226
  YS02001751           JUNCTION      0.01   582.77     0  01:10    0.000313         2.2       0.121
  YS02001754           JUNCTION      0.26   585.50     0  01:10     0.00741        2.21      -0.182
  YS02001757           JUNCTION      0.00  3409.67     0  01:10           0        21.2       0.027
  YS02001759           JUNCTION    589.73  1410.11     0  01:09        3.04        7.08      -0.007
  YS02001762           JUNCTION      0.00   829.50     0  01:09           0        4.05       0.011
  YS02001765           JUNCTION      0.00   828.90     0  01:09           0        4.04      -0.011
  YS02001767           JUNCTION      0.54   827.23     0  01:09      0.0152        4.04      -0.008
  YS02001770           JUNCTION    854.03   854.03     0  01:40        4.57        4.63      -0.007
  YS02001774           JUNCTION      0.00   523.34     0  01:08           0       0.624       0.238
  YS02001779           JUNCTION      0.01   516.43     0  01:08    0.000142        0.57      -0.211
  YS02001783           JUNCTION      0.00  1159.45     0  01:08           0        9.06       0.002
  YS02001784           JUNCTION      1.06  1160.08     0  01:09      0.0302        9.09       0.006
  YS02001786           JUNCTION      0.06  1159.74     0  01:08      0.0016        9.09       0.007
  YS02001788           JUNCTION      0.07  1160.55     0  01:08     0.00202        9.09       0.003
  YS02001790           JUNCTION      0.15  1180.31     0  01:08     0.00442         9.1       0.018
  YS02001791           JUNCTION      0.00  1283.28     0  01:40           0        9.09      -0.041
  YS02001793           JUNCTION      0.00  1241.80     0  02:06           0         9.1      -0.021
  YS02001882           JUNCTION      0.00   116.46     0  01:07           0      0.0137       5.673
  YS02001884           JUNCTION      0.00   230.54     0  01:06           0      0.0501       5.109
  YS02001887           JUNCTION    640.66   649.09     0  01:08        3.12        3.15       0.131
  YS02001890           JUNCTION      0.00   651.66     0  01:08           0        3.11       0.164
  YS02001895           JUNCTION      0.00   650.47     0  01:07           0        3.04       0.129
  YS02001898           JUNCTION      0.00   652.62     0  01:07           0        3.04      -0.057
  YS02001901           JUNCTION      0.00   650.66     0  01:07           0        3.05       0.120
  YS02001904           JUNCTION      0.00   648.69     0  01:07           0        3.08       0.092
  YS02001907           JUNCTION      0.00  1697.66     0  01:41           0        9.82       0.187
  YS02001910           JUNCTION      0.00  1181.29     0  01:41           0        6.74       0.099
  YS02001915           JUNCTION    783.66  1181.09     0  01:40        4.36         6.8       0.016
  YS02001918           JUNCTION      0.00   870.15     0  01:07           0        2.48       0.016
  YS02001920           JUNCTION      2.87   761.85     0  01:08      0.0818        2.44       0.003
  YS02001923           JUNCTION      0.04   957.73     0  01:08     0.00107        2.34      -0.041
  YS02001926           JUNCTION      0.05  1208.56     0  01:08     0.00149        2.31      -0.114
  YS02001929           JUNCTION    395.64  1116.37     0  01:08        2.29         2.3      -0.063
  YS02006553           JUNCTION      0.00   809.79     0  03:04           0        4.58       0.271
  YS02006556           JUNCTION      0.00   809.29     0  03:03           0         4.6       0.182
  YS02006558           JUNCTION    868.37  1181.73     0  01:07        4.59        9.13       0.037
  YS02006561           JUNCTION      0.00  1183.56     0  01:07           0        9.06       0.000
  YS02163301           JUNCTION      0.00   975.22     0  01:29           0        3.44       0.053
  YS02163601           JUNCTION      0.11  1371.45     0  01:29     0.00313        5.99       0.079
  YS02164001           JUNCTION      0.00  1372.05     0  01:29           0        5.99       0.032
  CC-1                 OUTFALL       0.00   683.00     0  00:00           0        8.88       0.000
  CC-2                 OUTFALL       0.00   683.00     0  00:00           0        8.88       0.000
  JK-1                 OUTFALL       0.00  1000.00     0  00:00           0        3.44       0.000
  JK-2                 OUTFALL       0.00  1000.00     0  00:00           0        3.44       0.000
  WSC                  OUTFALL       0.00   544.80     0  03:29           0        7.08       0.000
  CC-storage           STORAGE       0.00  3407.73     0  01:10           0        23.4      -0.218
  JK-storage           STORAGE       0.00  1389.69     0  02:06           0        9.25      -0.106
  
  
  **********************
  Node Surcharge Summary
  **********************
  
  Surcharging occurs when water rises above the top of the highest conduit.
  ---------------------------------------------------------------------
                                               Max. Height   Min. Depth
                                   Hours       Above Crown    Below Rim
  Node                 Type      Surcharged         Meters       Meters
  ---------------------------------------------------------------------
  WS02006109           JUNCTION        3.30          0.609        1.211
  WS02006110           JUNCTION        0.57          0.566        1.284
  WS02006112           JUNCTION        2.21          0.098        1.582
  WS02006228           JUNCTION        3.28          1.510        0.690
  WS02006229           JUNCTION        3.31          1.961        0.489
  WS02006230           JUNCTION        0.69          1.570        0.000
  WS02006231           JUNCTION        1.79          1.530        0.000
  WS02006232           JUNCTION        3.39          1.480        0.000
  WS02006234           JUNCTION        2.47          1.240        0.000
  WS02006235           JUNCTION        2.91          1.290        0.000
  WS02006238           JUNCTION        3.22          1.430        0.000
  WS02006239           JUNCTION        3.19          1.290        0.000
  WS02006240           JUNCTION        3.32          1.390        0.000
  WS02006242           JUNCTION        3.42          0.820        0.000
  WS02006243           JUNCTION        3.34          0.770        0.000
  WS02006245           JUNCTION        3.33          0.850        0.000
  WS02006247           JUNCTION        3.35          0.760        0.000
  WS02006248           JUNCTION        3.32          0.380        0.000
  WS02006249           JUNCTION        3.34          0.390        0.000
  WS02006251           JUNCTION        2.36          0.417        0.763
  WS02006252           JUNCTION        3.62          1.100        0.000
  WS02006256           JUNCTION        6.22          2.050        0.000
  YS02001580           JUNCTION        2.08          0.450        0.000
  YS02001583           JUNCTION        2.08          0.500        0.000
  YS02001586           JUNCTION        2.17          0.510        0.000
  YS02001590           JUNCTION        2.22          0.750        0.000
  YS02001593           JUNCTION        2.22          0.739        0.101
  YS02001596           JUNCTION        2.28          0.978        0.092
  YS02001600           JUNCTION        2.36          1.190        0.000
  YS02001601           JUNCTION        2.54          1.440        0.000
  YS02001602           JUNCTION        2.50          1.270        0.000
  YS02001605           JUNCTION        2.48          1.180        0.000
  YS02001607           JUNCTION        2.23          0.680        0.000
  YS02001610           JUNCTION        2.25          0.680        0.000
  YS02001613           JUNCTION        2.23          0.700        0.000
  YS02001616           JUNCTION        2.20          0.610        0.000
  YS02001619           JUNCTION        2.19          0.610        0.000
  YS02001622           JUNCTION        2.20          0.597        0.023
  YS02001625           JUNCTION        2.33          0.780        0.000
  YS02001629           JUNCTION        2.17          0.470        0.000
  YS02001633           JUNCTION        2.38          1.060        0.000
  YS02001641           JUNCTION        2.39          1.064        0.036
  YS02001644           JUNCTION        2.38          0.920        0.000
  YS02001647           JUNCTION        2.16          0.900        0.000
  YS02001649           JUNCTION        2.35          1.050        0.000
  YS02001652           JUNCTION        2.05          0.989        0.141
  YS02001655           JUNCTION        1.86          1.169        0.031
  YS02001658           JUNCTION        1.58          0.766        0.534
  YS02001661           JUNCTION        0.08          0.822        0.568
  YS02001748           JUNCTION        1.09          1.179        0.011
  YS02001751           JUNCTION        1.74          1.062        0.138
  YS02001754           JUNCTION        1.95          0.976        0.174
  YS02001757           JUNCTION        2.39          1.128        0.082
  YS02001759           JUNCTION        2.25          1.172        0.038
  YS02001762           JUNCTION        2.21          1.150        0.000
  YS02001765           JUNCTION        2.15          1.100        0.000
  YS02001767           JUNCTION        2.12          1.030        0.000
  YS02001770           JUNCTION        2.09          0.920        0.000
  YS02001774           JUNCTION        2.20          1.029        0.021
  YS02001779           JUNCTION        1.94          0.680        0.000
  YS02001783           JUNCTION        2.01          0.497        1.103
  YS02001784           JUNCTION        2.00          0.380        1.110
  YS02001786           JUNCTION        1.93          0.198        1.232
  YS02001882           JUNCTION        1.98          0.830        0.000
  YS02001884           JUNCTION        1.99          0.870        0.000
  YS02001887           JUNCTION        2.01          0.897        0.053
  YS02001890           JUNCTION        2.02          0.760        0.000
  YS02001895           JUNCTION        1.98          0.750        0.000
  YS02001898           JUNCTION        1.97          0.740        0.000
  YS02001901           JUNCTION        2.00          0.781        0.089
  YS02001904           JUNCTION        2.00          0.649        0.201
  YS02001907           JUNCTION        2.10          0.950        0.000
  YS02001910           JUNCTION        2.03          1.024        0.076
  YS02001915           JUNCTION        1.98          1.000        0.000
  YS02001918           JUNCTION        1.87          0.810        0.000
  YS02001920           JUNCTION        1.91          1.140        0.000
  YS02001923           JUNCTION        0.01          0.820        0.000
  YS02001926           JUNCTION        0.09          0.900        0.000
  YS02001929           JUNCTION        0.01          0.780        0.000
  YS02006553           JUNCTION        2.10          0.995        0.195
  YS02006556           JUNCTION        2.07          0.965        0.385
  YS02006558           JUNCTION        2.06          0.954        0.446
  YS02006561           JUNCTION        1.79          0.160        0.990
  YS02163301           JUNCTION        2.36          0.972        0.058
  YS02163601           JUNCTION        2.43          1.080        0.000
  YS02164001           JUNCTION        2.38          1.100        0.000
  
  
  *********************
  Node Flooding Summary
  *********************
  
  Flooding refers to all water that overflows a node, whether it ponds or not.
  --------------------------------------------------------------------------
                                                             Total   Maximum
                                 Maximum   Time of Max       Flood    Ponded
                        Hours       Rate    Occurrence      Volume     Depth
  Node                 Flooded       LPS   days hr:min    10^6 ltr    Meters
  --------------------------------------------------------------------------
  WS02006230              0.01     15.31      0  03:28       0.000     0.000
  WS02006231              0.01     65.17      0  01:23       0.000     0.000
  WS02006232              0.01     12.12      0  03:14       0.000     0.000
  WS02006234              0.01    134.54      0  01:30       0.000     0.000
  WS02006235              0.01     42.25      0  01:18       0.000     0.000
  WS02006238              0.01     25.63      0  01:18       0.000     0.000
  WS02006239              0.01      7.22      0  02:48       0.000     0.000
  WS02006240              0.01      1.92      0  01:56       0.000     0.000
  WS02006242              0.02     35.97      0  01:18       0.001     0.000
  WS02006243              0.01      5.31      0  01:18       0.000     0.000
  WS02006245              0.01      0.93      0  01:56       0.000     0.000
  WS02006247              0.01      0.78      0  01:56       0.000     0.000
  WS02006248              0.46     32.69      0  01:18       0.023     0.000
  WS02006249              2.06     88.32      0  03:28       0.335     0.000
  WS02006252              0.01    245.63      0  00:00       0.000     0.000
  WS02006256              2.20    316.14      0  01:23       0.934     0.000
  YS02001580              0.01    198.14      0  01:06       0.001     0.000
  YS02001583              0.01    224.06      0  01:06       0.001     0.000
  YS02001586              2.02    428.67      0  02:22       1.904     0.000
  YS02001590              0.01     10.41      0  01:06       0.000     0.000
  YS02001600              0.01      7.59      0  01:05       0.000     0.000
  YS02001601              2.12   1011.27      0  01:41       5.252     0.000
  YS02001602              2.09     62.03      0  02:59       0.442     0.000
  YS02001605              0.01      9.27      0  01:07       0.000     0.000
  YS02001607              0.01    382.30      0  01:07       0.003     0.000
  YS02001610              1.94    672.32      0  02:21       3.228     0.000
  YS02001613              0.01    234.62      0  01:07       0.001     0.000
  YS02001616              0.01     90.64      0  01:07       0.001     0.000
  YS02001619              0.01     81.31      0  01:07       0.000     0.000
  YS02001625              1.90   1218.30      0  01:41       6.100     0.000
  YS02001629              0.12    136.09      0  01:10       0.025     0.000
  YS02001633              0.01      1.31      0  01:35       0.000     0.000
  YS02001644              1.23    701.81      0  02:20       1.756     0.000
  YS02001647              0.01     79.04      0  01:08       0.000     0.000
  YS02001649              0.01     13.23      0  01:10       0.000     0.000
  YS02001762              0.01     16.67      0  01:10       0.000     0.000
  YS02001765              0.01     17.47      0  01:10       0.000     0.000
  YS02001767              0.01      7.69      0  01:10       0.000     0.000
  YS02001770              0.01     80.22      0  01:08       0.000     0.000
  YS02001779              1.08    460.22      0  01:08       0.546     0.000
  YS02001882              0.01    101.22      0  01:07       0.000     0.000
  YS02001884              0.01     47.48      0  01:07       0.000     0.000
  YS02001890              0.46    280.18      0  01:07       0.064     0.000
  YS02001895              0.01     69.45      0  01:07       0.000     0.000
  YS02001898              0.01    242.46      0  01:07       0.001     0.000
  YS02001907              1.76   1407.22      0  01:40       5.236     0.000
  YS02001915              0.01    251.76      0  01:07       0.001     0.000
  YS02001918              0.01    231.13      0  01:08       0.004     0.000
  YS02001920              0.01    585.94      0  01:07       0.001     0.000
  YS02001923              0.01    203.09      0  01:08       0.001     0.000
  YS02001926              0.01    238.36      0  01:08       0.003     0.000
  YS02001929              0.01    854.62      0  01:08       0.004     0.000
  YS02163601              0.01      1.90      0  01:35       0.000     0.000
  YS02164001              0.01      0.89      0  01:56       0.000     0.000
  
  
  **********************
  Storage Volume Summary
  **********************
  
  ------------------------------------------------------------------------------------------------
                         Average    Avg   Evap  Exfil     Maximum    Max    Time of Max    Maximum
                          Volume   Pcnt   Pcnt   Pcnt      Volume   Pcnt     Occurrence    Outflow
  Storage Unit           1000 m³   Full   Loss   Loss     1000 m³   Full    days hr:min        LPS
  ------------------------------------------------------------------------------------------------
  CC-storage               2.860   44.6    0.0    0.0       6.298   98.2       0  03:02    1783.53
  JK-storage               0.011    3.7    0.0    0.0       0.150   51.6       0  00:00    2300.00
  
  
  ***********************
  Outfall Loading Summary
  ***********************
  
  -----------------------------------------------------------
                         Flow       Avg       Max       Total
                         Freq      Flow      Flow      Volume
  Outfall Node           Pcnt       LPS       LPS    10^6 ltr
  -----------------------------------------------------------
  CC-1                  69.06    683.00    683.00       8.878
  CC-2                  69.06    683.00    683.00       8.878
  JK-1                  17.67   1000.00   1000.00       3.437
  JK-2                  17.67   1000.00   1000.00       3.437
  WSC                   99.95    335.75    544.80       7.081
  -----------------------------------------------------------
  System                54.68   3701.75   3906.45      31.711
  
  
  ********************
  Link Flow Summary
  ********************
  
  -----------------------------------------------------------------------------
                                 Maximum  Time of Max   Maximum    Max/    Max/
                                  |Flow|   Occurrence   |Veloc|    Full    Full
  Link                 Type          LPS  days hr:min     m/sec    Flow   Depth
  -----------------------------------------------------------------------------
  1                    CONDUIT    544.80     0  03:29      2.81    0.19    0.30
  WS02003060WS02003069 CONDUIT    543.66     0  03:27      1.64    0.21    0.34
  WS02003066WSF200     CONDUIT    526.93     0  03:23      2.84    0.09    0.22
  WS02003067WS02003066 CONDUIT    526.80     0  03:22      1.19    0.17    0.41
  WS02003069WS02003072 CONDUIT    544.38     0  03:28      1.36    0.26    0.38
  WS02003072WS02003073 CONDUIT    544.19     0  03:28      1.43    1.18    0.37
  WS02004401WS02004402 CONDUIT    536.99     0  03:27      1.22    0.64    0.88
  WS02004402WS02004403 CONDUIT    536.91     0  03:29      1.24    0.77    0.90
  WS02004403WS02004404 CONDUIT    545.21     0  02:24      1.24    0.39    0.95
  WS02004404WS02004405 CONDUIT    591.63     0  03:29      1.45    5.80    0.97
  WS02004405WS02004406 CONDUIT    536.96     0  03:21      1.46    1.06    0.96
  WS02004406WS02004407 CONDUIT    532.41     0  03:21      1.03    0.24    0.62
  WS02004407WS02004409 CONDUIT    531.64     0  03:21      1.59    0.19    0.48
  WS02004409WS02004410 CONDUIT    531.29     0  03:21      1.06    0.69    0.67
  WS02004410WS02004411 CONDUIT    530.57     0  03:25      1.13    0.72    0.68
  WS02004411WS02004412 CONDUIT    528.12     0  03:22      1.20    0.75    0.69
  WS02004412WS02004413 CONDUIT    527.60     0  03:26      1.22    0.35    0.77
  WS02004413WS02003067 CONDUIT    526.59     0  03:22      1.10    0.23    0.59
  WS02006109WS02006110 CONDUIT    610.64     0  03:28      1.22    1.17    1.00
  WS02006110WS02006113 CONDUIT    584.40     0  03:28      1.41    0.53    0.79
  WS02006111WS02006112 CONDUIT    543.42     0  03:22      1.95    0.26    0.67
  WS02006112WS02006115 CONDUIT    549.80     0  03:22      0.88    0.32    0.88
  WS02006113WS02006111 CONDUIT    558.94     0  03:19      2.48    0.67    0.46
  WS02006115WS02006116 CONDUIT    541.70     0  03:23      1.29    0.70    0.78
  WS02006116WS02004401 CONDUIT    540.14     0  03:29      1.21    0.74    0.86
  WS02006228WS02006109 CONDUIT    598.14     0  03:28      1.19    2.61    1.00
  WS02006229WS02006228 CONDUIT    591.06     0  03:28      1.18    1.96    1.00
  WS02006230WS02006229 CONDUIT    589.91     0  03:28      1.53   13.13    1.00
  WS02006231WS02006230 CONDUIT    585.73     0  03:20      1.59    8.88    1.00
  WS02006232WS02006231 CONDUIT    590.06     0  01:15      1.56    1.24    1.00
  WS02006234WS02006232 CONDUIT    587.65     0  01:15      1.53    1.19    1.00
  WS02006235WS02006234 CONDUIT    580.86     0  01:15      1.51    6.13    1.00
  WS02006238WS02006235 CONDUIT    428.54     0  03:29      1.51    0.96    1.00
  WS02006239WS02006238 CONDUIT    427.09     0  03:29      1.11    1.37    1.00
  WS02006240WS02006239 CONDUIT    427.74     0  04:23      1.24    1.35    1.00
  WS02006242WS02006240 CONDUIT    426.65     0  04:23      1.16    1.69    1.00
  WS02006243WS02006242 CONDUIT    426.40     0  04:23      1.38    0.91    1.00
  WS02006245WS02006243 CONDUIT    425.77     0  04:23      1.44    1.26    1.00
  WS02006247WS02006245 CONDUIT    426.29     0  04:10      1.43    3.38    1.00
  WS02006248WS02006247 CONDUIT    425.93     0  04:10      1.42    0.93    1.00
  WS02006249WS02006248 CONDUIT    427.37     0  04:10      1.36    2.34    1.00
  WS02006251WS02006249 CONDUIT    488.52     0  01:09      2.05    1.41    1.00
  WS02006252WS02006251 CONDUIT    409.67     0  03:42      4.97    1.50    1.00
  WS02006256WS02006235 CONDUIT    288.91     0  00:00      4.23    3.06    1.00
  WSF200WS02003060     CONDUIT    528.30     0  03:27      2.06    0.12    0.28
  YS02001580YS02001583 CONDUIT    267.34     0  01:06      1.15    1.04    1.00
  YS02001583YS02001586 CONDUIT    293.27     0  01:05      1.29    0.44    1.00
  YS02001586YS02001590 CONDUIT    318.10     0  01:35      1.42    0.56    1.00
  YS02001590YS02001593 CONDUIT    318.04     0  02:20      1.12    2.00    1.00
  YS02001593YS02001596 CONDUIT    317.97     0  02:38      1.69    0.50    1.00
  YS02001596YS02001600 CONDUIT    318.11     0  02:38      1.25    0.62    1.00
  YS02001600YS02001601 CONDUIT    318.08     0  02:53      1.12    0.55    1.00
  YS02001601YS02001602 CONDUIT    618.85     0  01:06      2.19    2.24    1.00
  YS02001602YS02001605 CONDUIT    618.58     0  01:06      2.19   13.09    1.00
  YS02001605YS02001607 CONDUIT    618.17     0  01:06      2.19    3.39    1.00
  YS02001607YS02001610 CONDUIT    688.70     0  01:06      1.05    0.65    1.00
  YS02001610YS02001613 CONDUIT    615.03     0  01:06      0.88    0.71    1.00
  YS02001613YS02001616 CONDUIT    577.59     0  01:06      0.90    0.50    1.00
  YS02001616YS02001619 CONDUIT    518.71     0  01:06      0.95    0.90    1.00
  YS02001619YS02001622 CONDUIT   1002.10     0  01:06      2.17    1.48    1.00
  YS02001622YS02001625 CONDUIT    975.03     0  01:29      1.34    0.52    1.00
  YS02001625YS02001629 CONDUIT    974.73     0  01:29      1.24    0.46    1.00
  YS02001629YS02163301 CONDUIT    975.22     0  01:29      1.24    1.20    1.00
  YS02001633YS02163601 CONDUIT   1371.34     0  01:29      1.75    1.44    1.00
  YS02001641YS02001644 CONDUIT   1371.47     0  01:29      1.75    4.43    1.00
  YS02001644YS02001647 CONDUIT   1880.37     0  01:08      2.39    1.10    1.00
  YS02001647YS02001649 CONDUIT   1897.67     0  01:08      2.42    1.00    1.00
  YS02001649YS02001757 CONDUIT   2165.60     0  01:08      2.76    1.31    1.00
  YS02001652YS02001649 CONDUIT    812.17     0  01:11      1.68    0.40    1.00
  YS02001655YS02001652 CONDUIT    813.30     0  01:11      2.12    0.39    1.00
  YS02001658YS02001655 CONDUIT    819.81     0  01:09      2.27    0.35    1.00
  YS02001661YS02001658 CONDUIT    814.51     0  01:11      2.54    0.32    1.00
  YS02001664YS02001661 CONDUIT    858.69     0  02:19      2.48    0.27    0.82
  YS02001745YS02001748 CONDUIT    645.32     0  01:09      2.42    0.25    1.00
  YS02001748YS02001751 CONDUIT    582.76     0  01:10      1.98    0.29    1.00
  YS02001751YS02001754 CONDUIT    585.24     0  01:10      1.98    0.28    1.00
  YS02001754YS02001757 CONDUIT    584.73     0  01:10      1.23    0.24    1.00
  YS02001757CaochengTiaoxuchi CONDUIT   3407.73     0  01:10      6.16    1.47    1.00
  YS02001759YS02001757 CONDUIT   1408.84     0  01:09      1.79    1.00    1.00
  YS02001762YS02001759 CONDUIT    831.00     0  01:09      1.06    0.96    1.00
  YS02001765YS02001762 CONDUIT    829.50     0  01:09      1.06    0.78    1.00
  YS02001767YS02001765 CONDUIT    828.90     0  01:09      1.06    1.04    1.00
  YS02001770YS02001767 CONDUIT    826.69     0  01:09      1.07    3.27    1.00
  YS02001774YS02001770 CONDUIT    523.34     0  01:08      0.96    0.33    1.00
  YS02001779YS02001774 CONDUIT    516.43     0  01:08      0.67    0.26    1.00
  YS02001783YS02001784 CONDUIT   1159.02     0  01:09      2.31    1.60    1.00
  YS02001784YS02001785 CONDUIT   1159.68     0  01:08      2.31    2.70    1.00
  YS02001786YS02001788 CONDUIT   1160.48     0  01:08      2.49    2.24    0.89
  YS02001788YS02001790 CONDUIT   1180.15     0  01:08      2.76    0.87    0.84
  YS02001790YS02001791 CONDUIT   1283.28     0  01:40      3.43    1.40    0.70
  YS02001791YS02001793 CONDUIT   1241.80     0  02:06      6.78    0.53    0.43
  YS02001793JiankangQianchi CONDUIT   1389.69     0  02:06     15.03    0.11    0.50
  YS02001882YS02001884 CONDUIT    116.46     0  01:07      0.57    0.13    1.00
  YS02001884YS02001887 CONDUIT    230.54     0  01:06      0.55    0.31    1.00
  YS02001887YS02001890 CONDUIT    651.66     0  01:08      0.83    1.12    1.00
  YS02001890YS02001895 CONDUIT    650.47     0  01:07      0.83    0.30    1.00
  YS02001895YS02001898 CONDUIT    652.62     0  01:07      0.92    1.13    1.00
  YS02001898YS02001901 CONDUIT    650.66     0  01:07      0.83    0.42    1.00
  YS02001901YS02001904 CONDUIT    648.69     0  01:07      0.90    1.01    1.00
  YS02001904YS02001907 CONDUIT    642.58     0  01:07      0.82    0.22    1.00
  YS02001907YS02006553 CONDUIT    809.79     0  03:04      0.90    0.95    1.00
  YS02001910YS02001907 CONDUIT   1181.13     0  01:41      1.50    0.67    1.00
  YS02001915YS02001910 CONDUIT   1181.29     0  01:41      1.50    0.59    1.00
  YS02001918YS02001915 CONDUIT    870.15     0  01:07      1.11    0.48    1.00
  YS02001920YS02001918 CONDUIT    758.98     0  01:08      0.97    0.73    1.00
  YS02001923YS02001920 CONDUIT    783.66     0  01:08      1.04    0.35    1.00
  YS02001926YS02001923 CONDUIT    975.41     0  01:08      1.40    1.39    1.00
  YS02001929YS02001926 CONDUIT    838.88     0  01:08      1.23    0.40    1.00
  YS02006553YS02006556 CONDUIT    809.29     0  03:03      1.03    0.69    1.00
  YS02006556YS02006558 CONDUIT    811.51     0  03:03      1.03    0.64    1.00
  YS02006558YS02006561 CONDUIT   1183.56     0  01:07      4.19    2.62    1.00
  YS02006561YS02001783 CONDUIT   1159.45     0  01:08      2.31    0.60    1.00
  YS02163301YS02001633 CONDUIT    974.67     0  01:29      1.24    0.92    1.00
  YS02163601YS02164001 CONDUIT   1372.05     0  01:29      1.75    1.22    1.00
  YS02164001YS02001641 CONDUIT   1372.20     0  01:30      1.75    1.87    1.00
  CC-R1                PUMP       683.00     0  00:00              1.00
  CC-R2                PUMP       683.00     0  00:00              1.00
  CC-S1                PUMP       200.00     0  00:00              1.00
  CC-S2                PUMP       200.00     0  00:00              1.00
  JK-R1                PUMP      1000.00     0  00:00              1.00
  JK-R2                PUMP      1000.00     0  00:00              1.00
  JK-S                 PUMP       300.00     0  00:00              1.00
  
  
  ***************************
  Flow Classification Summary
  ***************************
  
  -------------------------------------------------------------------------------------
                      Adjusted    ---------- Fraction of Time in Flow Class ---------- 
                       /Actual         Up    Down  Sub   Sup   Up    Down  Norm  Inlet 
  Conduit               Length    Dry  Dry   Dry   Crit  Crit  Crit  Crit  Ltd   Ctrl  
  -------------------------------------------------------------------------------------
  1                       1.00   0.00  0.00  0.00  0.00  1.00  0.00  0.00  0.40  0.00
  WS02003060WS02003069    1.00   0.00  0.00  0.00  0.98  0.02  0.00  0.00  0.57  0.00
  WS02003066WSF200        1.00   0.05  0.00  0.00  0.00  0.95  0.00  0.00  0.74  0.00
  WS02003067WS02003066    1.00   0.05  0.00  0.00  0.95  0.00  0.00  0.00  0.00  0.00
  WS02003069WS02003072    1.00   0.00  0.00  0.00  0.99  0.01  0.00  0.00  0.57  0.00
  WS02003072WS02003073    1.00   0.00  0.00  0.00  0.00  0.00  0.00  1.00  0.00  0.00
  WS02004401WS02004402    1.00   0.02  0.00  0.00  0.98  0.00  0.00  0.00  0.00  0.00
  WS02004402WS02004403    1.00   0.02  0.00  0.00  0.98  0.00  0.00  0.00  0.00  0.00
  WS02004403WS02004404    1.00   0.00  0.03  0.00  0.97  0.00  0.00  0.00  0.00  0.00
  WS02004404WS02004405    1.00   0.00  0.00  0.00  1.00  0.00  0.00  0.00  0.01  0.00
  WS02004405WS02004406    1.00   0.00  0.00  0.00  1.00  0.00  0.00  0.00  0.00  0.00
  WS02004406WS02004407    1.00   0.00  0.03  0.00  0.97  0.00  0.00  0.00  0.00  0.00
  WS02004407WS02004409    1.00   0.03  0.00  0.00  0.95  0.01  0.00  0.00  0.95  0.00
  WS02004409WS02004410    1.00   0.03  0.00  0.00  0.96  0.00  0.00  0.00  0.00  0.00
  WS02004410WS02004411    1.00   0.04  0.00  0.00  0.96  0.00  0.00  0.00  0.00  0.00
  WS02004411WS02004412    1.00   0.04  0.00  0.00  0.96  0.00  0.00  0.00  0.00  0.00
  WS02004412WS02004413    1.00   0.04  0.00  0.00  0.96  0.00  0.00  0.00  0.00  0.00
  WS02004413WS02003067    1.00   0.04  0.01  0.00  0.00  0.00  0.95  0.00  0.00  0.00
  WS02006109WS02006110    1.00   0.00  0.01  0.00  0.98  0.00  0.01  0.00  0.00  0.00
  WS02006110WS02006113    1.00   0.01  0.01  0.00  0.98  0.00  0.00  0.00  0.00  0.00
  WS02006111WS02006112    1.00   0.02  0.00  0.00  0.98  0.00  0.00  0.00  0.98  0.00
  WS02006112WS02006115    1.00   0.02  0.00  0.00  0.97  0.00  0.00  0.00  0.00  0.00
  WS02006113WS02006111    1.00   0.02  0.00  0.00  0.00  0.98  0.00  0.00  0.15  0.00
  WS02006115WS02006116    1.00   0.02  0.00  0.00  0.97  0.00  0.00  0.01  0.00  0.00
  WS02006116WS02004401    1.00   0.02  0.00  0.00  0.98  0.00  0.00  0.00  0.00  0.00
  WS02006228WS02006109    1.00   0.00  0.00  0.00  1.00  0.00  0.00  0.00  0.00  0.00
  WS02006229WS02006228    1.00   0.00  0.00  0.00  0.99  0.00  0.00  0.01  0.00  0.00
  WS02006230WS02006229    1.00   0.00  0.00  0.00  0.99  0.00  0.00  0.01  0.01  0.00
  WS02006231WS02006230    1.00   0.00  0.00  0.00  0.44  0.00  0.56  0.00  0.00  0.00
  WS02006232WS02006231    1.00   0.00  0.00  0.00  0.98  0.00  0.02  0.00  0.00  0.00
  WS02006234WS02006232    1.00   0.00  0.00  0.00  1.00  0.00  0.00  0.00  0.02  0.00
  WS02006235WS02006234    1.00   0.00  0.00  0.00  0.97  0.00  0.03  0.00  0.00  0.00
  WS02006238WS02006235    1.00   0.00  0.00  0.00  1.00  0.00  0.00  0.00  0.00  0.00
  WS02006239WS02006238    1.00   0.00  0.00  0.00  1.00  0.00  0.00  0.00  0.18  0.00
  WS02006240WS02006239    1.00   0.00  0.00  0.00  0.70  0.00  0.00  0.30  0.03  0.00
  WS02006242WS02006240    1.00   0.00  0.00  0.00  1.00  0.00  0.00  0.00  0.03  0.00
  WS02006243WS02006242    1.00   0.00  0.00  0.00  0.99  0.00  0.00  0.00  0.50  0.00
  WS02006245WS02006243    1.00   0.00  0.00  0.00  0.60  0.00  0.00  0.40  0.00  0.00
  WS02006247WS02006245    1.00   0.00  0.00  0.00  0.99  0.00  0.00  0.01  0.00  0.00
  WS02006248WS02006247    1.00   0.00  0.00  0.00  0.99  0.00  0.00  0.00  0.12  0.00
  WS02006249WS02006248    1.00   0.00  0.00  0.00  0.49  0.00  0.51  0.00  0.00  0.00
  WS02006251WS02006249    1.00   0.00  0.00  0.00  1.00  0.00  0.00  0.00  0.52  0.00
  WS02006252WS02006251    1.00   0.00  0.54  0.00  0.30  0.00  0.16  0.00  0.44  0.00
  WS02006256WS02006235    1.00   0.00  0.00  0.00  0.98  0.02  0.00  0.00  0.00  0.00
  WSF200WS02003060        1.00   0.00  0.05  0.00  0.36  0.59  0.00  0.00  0.51  0.00
  YS02001580YS02001583    1.00   0.14  0.49  0.00  0.37  0.00  0.00  0.00  0.58  0.00
  YS02001583YS02001586    1.00   0.36  0.22  0.00  0.43  0.00  0.00  0.00  0.58  0.00
  YS02001586YS02001590    1.00   0.13  0.00  0.00  0.53  0.03  0.00  0.31  0.27  0.00
  YS02001590YS02001593    1.00   0.13  0.00  0.00  0.29  0.00  0.58  0.00  0.00  0.00
  YS02001593YS02001596    1.00   0.13  0.00  0.00  0.30  0.00  0.00  0.57  0.01  0.00
  YS02001596YS02001600    1.00   0.13  0.00  0.00  0.33  0.01  0.00  0.54  0.02  0.00
  YS02001600YS02001601    1.00   0.13  0.00  0.00  0.87  0.00  0.00  0.00  0.51  0.00
  YS02001601YS02001602    1.00   0.13  0.00  0.00  0.87  0.00  0.00  0.00  0.00  0.00
  YS02001602YS02001605    1.00   0.13  0.00  0.00  0.87  0.00  0.00  0.00  0.00  0.00
  YS02001605YS02001607    1.00   0.13  0.00  0.00  0.87  0.00  0.00  0.00  0.00  0.00
  YS02001607YS02001610    1.00   0.13  0.00  0.00  0.87  0.00  0.00  0.00  0.00  0.00
  YS02001610YS02001613    1.00   0.13  0.00  0.00  0.87  0.00  0.00  0.00  0.00  0.00
  YS02001613YS02001616    1.00   0.13  0.00  0.00  0.87  0.00  0.00  0.00  0.00  0.00
  YS02001616YS02001619    1.00   0.13  0.00  0.00  0.87  0.00  0.00  0.00  0.00  0.00
  YS02001619YS02001622    1.00   0.13  0.00  0.00  0.87  0.00  0.00  0.00  0.23  0.00
  YS02001622YS02001625    1.00   0.13  0.00  0.00  0.87  0.00  0.00  0.00  0.00  0.00
  YS02001625YS02001629    1.00   0.13  0.01  0.00  0.33  0.00  0.53  0.00  0.00  0.00
  YS02001629YS02163301    1.00   0.13  0.00  0.00  0.87  0.00  0.00  0.00  0.00  0.00
  YS02001633YS02163601    1.00   0.00  0.01  0.00  0.99  0.00  0.00  0.00  0.12  0.00
  YS02001641YS02001644    1.00   0.00  0.01  0.00  0.99  0.00  0.00  0.00  0.00  0.00
  YS02001644YS02001647    1.00   0.00  0.13  0.00  0.87  0.00  0.00  0.00  0.00  0.00
  YS02001647YS02001649    1.00   0.00  0.13  0.00  0.64  0.22  0.00  0.00  0.51  0.00
  YS02001649YS02001757    1.00   0.00  0.00  0.00  0.76  0.24  0.00  0.00  0.31  0.00
  YS02001652YS02001649    1.00   0.00  0.00  0.00  0.99  0.00  0.00  0.00  0.62  0.00
  YS02001655YS02001652    1.00   0.00  0.00  0.00  0.35  0.00  0.00  0.64  0.02  0.00
  YS02001658YS02001655    1.00   0.00  0.13  0.00  0.83  0.04  0.00  0.00  0.55  0.00
  YS02001661YS02001658    1.00   0.13  0.00  0.00  0.66  0.21  0.00  0.00  0.58  0.00
  YS02001664YS02001661    1.00   0.13  0.00  0.00  0.82  0.05  0.00  0.00  0.73  0.00
  YS02001745YS02001748    1.00   0.00  0.00  0.00  0.29  0.01  0.00  0.70  0.05  0.00
  YS02001748YS02001751    1.00   0.00  0.00  0.00  0.97  0.03  0.00  0.00  0.67  0.00
  YS02001751YS02001754    1.00   0.00  0.00  0.00  0.35  0.00  0.00  0.64  0.02  0.00
  YS02001754YS02001757    1.00   0.00  0.00  0.00  1.00  0.00  0.00  0.00  0.64  0.00
  YS02001757CaochengTiaoxuchi    1.00   0.00  0.00  0.00  0.89  0.11  0.00  0.00  0.60  0.00
  YS02001759YS02001757    1.00   0.00  0.00  0.00  0.99  0.01  0.00  0.00  0.57  0.00
  YS02001762YS02001759    1.00   0.00  0.00  0.00  1.00  0.00  0.00  0.00  0.01  0.00
  YS02001765YS02001762    1.00   0.00  0.00  0.00  1.00  0.00  0.00  0.00  0.60  0.00
  YS02001767YS02001765    1.00   0.00  0.00  0.00  1.00  0.00  0.00  0.00  0.00  0.00
  YS02001770YS02001767    1.00   0.00  0.00  0.00  1.00  0.00  0.00  0.00  0.00  0.00
  YS02001774YS02001770    1.00   0.00  0.13  0.00  0.74  0.00  0.13  0.00  0.00  0.00
  YS02001779YS02001774    1.00   0.00  0.00  0.00  1.00  0.00  0.00  0.00  0.63  0.00
  YS02001783YS02001784    1.00   0.00  0.13  0.00  0.87  0.00  0.00  0.00  0.51  0.00
  YS02001784YS02001785    1.00   0.00  0.00  0.00  1.00  0.00  0.00  0.00  0.12  0.00
  YS02001786YS02001788    1.00   0.00  0.00  0.00  0.89  0.11  0.00  0.00  0.00  0.00
  YS02001788YS02001790    1.00   0.00  0.00  0.00  0.25  0.75  0.00  0.00  0.71  0.00
  YS02001790YS02001791    1.00   0.00  0.00  0.00  0.01  0.99  0.00  0.00  0.10  0.00
  YS02001791YS02001793    1.00   0.00  0.00  0.00  0.00  1.00  0.00  0.00  0.03  0.00
  YS02001793JiankangQianchi    1.00   0.00  0.00  0.00  0.55  0.45  0.00  0.00  0.89  0.00
  YS02001882YS02001884    1.00   0.13  0.00  0.00  0.87  0.00  0.00  0.00  0.00  0.00
  YS02001884YS02001887    1.00   0.06  0.05  0.00  0.89  0.00  0.00  0.00  0.00  0.00
  YS02001887YS02001890    1.00   0.00  0.00  0.00  0.97  0.00  0.03  0.00  0.00  0.00
  YS02001890YS02001895    1.00   0.00  0.13  0.00  0.87  0.00  0.00  0.00  0.00  0.00
  YS02001895YS02001898    1.00   0.13  0.00  0.00  0.86  0.00  0.00  0.00  0.00  0.00
  YS02001898YS02001901    1.00   0.13  0.00  0.00  0.87  0.00  0.00  0.00  0.00  0.00
  YS02001901YS02001904    1.00   0.13  0.00  0.00  0.87  0.00  0.00  0.00  0.00  0.00
  YS02001904YS02001907    1.00   0.00  0.13  0.00  0.87  0.00  0.00  0.00  0.00  0.00
  YS02001907YS02006553    1.00   0.00  0.02  0.00  0.98  0.00  0.00  0.00  0.00  0.00
  YS02001910YS02001907    1.00   0.00  0.00  0.00  0.97  0.00  0.00  0.03  0.10  0.00
  YS02001915YS02001910    1.00   0.00  0.00  0.00  0.98  0.02  0.00  0.00  0.10  0.00
  YS02001918YS02001915    1.00   0.00  0.01  0.00  0.98  0.02  0.00  0.00  0.60  0.00
  YS02001920YS02001918    1.00   0.00  0.01  0.00  0.99  0.00  0.00  0.00  0.00  0.00
  YS02001923YS02001920    1.00   0.00  0.00  0.00  1.00  0.00  0.00  0.00  0.74  0.00
  YS02001926YS02001923    1.00   0.00  0.07  0.00  0.25  0.00  0.67  0.00  0.00  0.00
  YS02001929YS02001926    1.00   0.00  0.13  0.00  0.87  0.00  0.00  0.00  0.62  0.00
  YS02006553YS02006556    1.00   0.01  0.00  0.00  0.99  0.00  0.00  0.00  0.03  0.00
  YS02006556YS02006558    1.00   0.00  0.00  0.00  1.00  0.00  0.00  0.00  0.00  0.00
  YS02006558YS02006561    1.00   0.13  0.00  0.00  0.25  0.62  0.00  0.00  0.13  0.00
  YS02006561YS02001783    1.00   0.13  0.00  0.00  0.26  0.60  0.00  0.00  0.59  0.00
  YS02163301YS02001633    1.00   0.00  0.13  0.00  0.87  0.00  0.00  0.00  0.00  0.00
  YS02163601YS02164001    1.00   0.00  0.08  0.00  0.92  0.00  0.00  0.00  0.00  0.00
  YS02164001YS02001641    1.00   0.01  0.08  0.00  0.92  0.00  0.00  0.00  0.05  0.00
  
  
  *************************
  Conduit Surcharge Summary
  *************************
  
  ----------------------------------------------------------------------------
                                                           Hours        Hours 
                         --------- Hours Full --------   Above Full   Capacity
  Conduit                Both Ends  Upstream  Dnstream   Normal Flow   Limited
  ----------------------------------------------------------------------------
  WS02003072WS02003073        0.01      0.01      0.01      2.53         0.01
  WS02004404WS02004405        0.01      0.01      0.01      3.91         0.01
  WS02004405WS02004406        0.01      0.01      0.01      2.01         0.01
  WS02006109WS02006110        0.55      0.55      3.37      1.02         0.01
  WS02006110WS02006113        0.01      0.01      3.35      0.01         0.01
  WS02006111WS02006112        0.01      0.01      3.41      0.01         0.01
  WS02006112WS02006115        0.01      0.01      2.21      0.01         0.01
  WS02006228WS02006109        3.30      3.37      3.30      3.62         3.30
  WS02006229WS02006228        3.28      3.31      3.28      3.53         3.26
  WS02006230WS02006229        3.44      3.48      3.44      4.13         3.44
  WS02006231WS02006230        0.67      0.67      2.19      3.95         0.01
  WS02006232WS02006231        1.78      1.78      3.39      1.76         0.01
  WS02006234WS02006232        3.03      3.03      3.39      1.67         1.46
  WS02006235WS02006234        2.36      2.46      2.89      3.87         0.23
  WS02006238WS02006235        3.01      3.01      3.41      0.01         0.11
  WS02006239WS02006238        3.21      3.39      3.22      3.49         2.72
  WS02006240WS02006239        3.18      3.34      3.18      3.49         2.46
  WS02006242WS02006240        3.32      3.32      3.45      3.57         0.03
  WS02006243WS02006242        3.35      3.35      3.42      0.01         0.55
  WS02006245WS02006243        3.33      3.34      3.34      3.07         2.22
  WS02006247WS02006245        3.33      3.37      3.33      3.62         3.02
  WS02006248WS02006247        3.33      3.33      3.35      0.01         0.60
  WS02006249WS02006248        3.32      3.32      3.34      3.62         0.01
  WS02006251WS02006249        3.34      3.34      3.34      3.57         3.02
  WS02006252WS02006251        3.62      3.62      3.62      3.62         0.01
  WS02006256WS02006235        3.53      3.90      5.88      2.23         0.04
  YS02001580YS02001583        2.08      2.08      2.11      0.01         0.01
  YS02001583YS02001586        2.08      2.08      2.17      0.01         0.01
  YS02001586YS02001590        2.17      2.17      2.22      0.01         0.01
  YS02001590YS02001593        2.21      2.22      2.22      2.26         0.01
  YS02001593YS02001596        2.22      2.22      2.28      0.01         0.01
  YS02001596YS02001600        2.30      2.30      2.36      0.01         0.01
  YS02001600YS02001601        2.39      2.39      2.54      0.01         0.01
  YS02001601YS02001602        2.50      2.50      2.56      2.30         0.01
  YS02001602YS02001605        2.48      2.48      2.50      3.00         0.01
  YS02001605YS02001607        2.46      2.48      2.48      2.40         2.36
  YS02001607YS02001610        2.23      2.23      2.25      0.01         0.01
  YS02001610YS02001613        2.23      2.23      2.25      0.01         0.01
  YS02001613YS02001616        2.20      2.20      2.23      0.01         0.01
  YS02001616YS02001619        2.19      2.19      2.20      0.01         0.07
  YS02001619YS02001622        2.19      2.19      2.20      2.13         2.00
  YS02001622YS02001625        2.20      2.20      2.33      0.01         0.01
  YS02001625YS02001629        2.17      2.17      2.33      0.01         0.01
  YS02001629YS02163301        2.35      2.35      2.36      0.17         0.20
  YS02001633YS02163601        2.38      2.38      2.43      0.30         0.30
  YS02001641YS02001644        2.38      2.39      2.38      2.61         2.05
  YS02001644YS02001647        2.16      2.16      2.38      0.06         0.01
  YS02001647YS02001649        2.16      2.16      2.35      0.01         0.01
  YS02001649YS02001757        2.31      2.35      2.39      0.46         0.38
  YS02001652YS02001649        2.08      2.08      2.35      0.01         0.01
  YS02001655YS02001652        1.86      1.86      2.05      0.01         0.01
  YS02001658YS02001655        1.58      1.58      1.86      0.01         0.01
  YS02001661YS02001658        0.07      0.07      1.58      0.01         0.01
  YS02001664YS02001661        0.01      0.01      0.35      0.01         0.01
  YS02001745YS02001748        0.01      0.01      1.08      0.01         0.01
  YS02001748YS02001751        1.43      1.43      1.74      0.01         0.01
  YS02001751YS02001754        1.74      1.74      1.95      0.01         0.01
  YS02001754YS02001757        1.98      1.98      2.39      0.01         0.01
  YS02001757CaochengTiaoxuchi        1.98      2.39      2.41      1.30         0.81
  YS02001759YS02001757        2.25      2.25      2.39      0.01         0.03
  YS02001762YS02001759        2.21      2.21      2.25      0.01         0.05
  YS02001765YS02001762        2.15      2.15      2.21      0.01         0.01
  YS02001767YS02001765        2.12      2.12      2.15      0.02         0.10
  YS02001770YS02001767        2.12      2.12      2.12      2.00         1.72
  YS02001774YS02001770        2.09      2.09      2.20      0.01         0.01
  YS02001779YS02001774        1.94      1.94      2.20      0.01         0.01
  YS02001783YS02001784        2.00      2.01      2.00      2.07         2.00
  YS02001784YS02001785        1.93      2.00      1.93      2.14         1.93
  YS02001786YS02001788        0.01      1.93      0.01      2.11         0.01
  YS02001790YS02001791        0.01      0.01      0.01      2.00         0.01
  YS02001882YS02001884        1.98      1.98      1.99      0.01         0.01
  YS02001884YS02001887        2.00      2.00      2.01      0.01         0.01
  YS02001887YS02001890        2.02      2.02      2.02      0.15         0.01
  YS02001890YS02001895        1.98      1.98      2.03      0.01         0.01
  YS02001895YS02001898        1.97      1.97      1.98      0.01         0.01
  YS02001898YS02001901        1.98      1.98      2.00      0.01         0.01
  YS02001901YS02001904        2.00      2.00      2.00      0.01         0.01
  YS02001904YS02001907        2.00      2.00      2.11      0.01         0.01
  YS02001907YS02006553        2.15      2.15      2.16      0.01         0.01
  YS02001910YS02001907        2.03      2.03      2.10      0.01         0.01
  YS02001915YS02001910        1.98      1.98      2.03      0.01         0.01
  YS02001918YS02001915        1.87      1.87      1.98      0.01         0.01
  YS02001920YS02001918        1.87      1.87      1.91      0.01         0.01
  YS02001923YS02001920        1.78      1.78      1.91      0.01         0.01
  YS02001926YS02001923        0.01      0.01      0.09      0.01         0.01
  YS02001929YS02001926        0.01      0.01      0.09      0.01         0.01
  YS02006553YS02006556        2.07      2.07      2.10      0.01         0.01
  YS02006556YS02006558        2.09      2.09      2.11      0.01         0.01
  YS02006558YS02006561        1.95      2.06      1.95      2.13         1.95
  YS02006561YS02001783        1.79      1.79      2.01      0.01         0.01
  YS02163301YS02001633        2.36      2.36      2.40      0.01         0.02
  YS02163601YS02164001        2.38      2.38      2.43      0.24         0.01
  YS02164001YS02001641        2.38      2.38      2.39      0.52         0.57
  
  
  ***************
  Pumping Summary
  ***************
  
  ---------------------------------------------------------------------------------------------------------
                                                  Min       Avg       Max     Total     Power    % Time Off
                        Percent   Number of      Flow      Flow      Flow    Volume     Usage    Pump Curve
  Pump                 Utilized   Start-Ups       LPS       LPS       LPS  10^6 ltr     Kw-hr    Low   High
  ---------------------------------------------------------------------------------------------------------
  CC-R1                   45.60           2      0.00    683.00    683.00     8.877    166.63    0.0   60.4
  CC-R2                   45.60           2      0.00    683.00    683.00     8.877    166.63    0.0   60.4
  CC-S1                   45.79           2      0.00    200.00    200.00     2.610     14.13    0.0   32.5
  CC-S2                   45.79           2      0.00    200.00    200.00     2.610     14.13    0.0   32.5
  JK-R1                   12.20         146      0.00   1000.00   1000.00     3.476     10.66    0.0    0.0
  JK-R2                   12.20         146      0.00   1000.00   1000.00     3.476     10.66    0.0    0.0
  JK-S                    27.80         176      0.00    300.00    300.00     2.377     52.78    0.0    0.0
  

  Analysis begun on:  Tue Apr 22 10:18:50 2025
  Analysis ended on:  Tue Apr 22 10:18:51 2025
  Total elapsed time: 00:00:01