
  EPA STORM WATER MANAGEMENT MODEL - VERSION 5.2 (Build 5.2.4)
  PYSWMM TOOLKIT API - VERSION v1.0 (2023-11-27)
  ------------------------------------------------------------

  WARNING 04: minimum elevation drop used for Conduit WS02004404WS02004405
  WARNING 03: negative offset ignored for Link YS02001904YS02001907
  
  ****************
  Analysis Options
  ****************
  Flow Units ............... LPS
  Process Models:
    Rainfall/Runoff ........ YES
    RDII ................... NO
    Snowmelt ............... NO
    Groundwater ............ NO
    Flow Routing ........... YES
    Ponding Allowed ........ NO
    Water Quality .......... NO
  Infiltration Method ...... HORTON
  Flow Routing Method ...... DYNWAVE
  Surcharge Method ......... EXTRAN
  Starting Date ............ 08/28/2015 08:00:00
  Ending Date .............. 08/28/2015 16:00:00
  Antecedent Dry Days ...... 8.0
  Report Time Step ......... 00:01:00
  Wet Time Step ............ 00:01:00
  Dry Time Step ............ 00:01:00
  Routing Time Step ........ 30.00 sec
  Variable Time Step ....... YES
  Maximum Trials ........... 8
  Number of Threads ........ 4
  Head Tolerance ........... 0.001500 m
  
  
  **************************        Volume         Depth
  Runoff Quantity Continuity     hectare-m            mm
  **************************     ---------       -------
  Total Precipitation ......         3.382       101.952
  Evaporation Loss .........         0.000         0.000
  Infiltration Loss ........         0.103         3.096
  Surface Runoff ...........         3.247        97.885
  Final Storage ............         0.033         0.997
  Continuity Error (%) .....        -0.027
  
  
  **************************        Volume        Volume
  Flow Routing Continuity        hectare-m      10^6 ltr
  **************************     ---------     ---------
  Dry Weather Inflow .......         0.025         0.248
  Wet Weather Inflow .......         3.246        32.462
  Groundwater Inflow .......         0.000         0.000
  RDII Inflow ..............         0.000         0.000
  External Inflow ..........         0.083         0.825
  External Outflow .........         2.110        21.099
  Flooding Loss ............         1.400        14.001
  Evaporation Loss .........         0.000         0.000
  Exfiltration Loss ........         0.000         0.000
  Initial Stored Volume ....         0.243         2.431
  Final Stored Volume ......         0.098         0.982
  Continuity Error (%) .....        -0.323
  
  
  *************************
  Highest Continuity Errors
  *************************
  Node YS02001583 (-12.21%)
  Node YS02001884 (4.77%)
  Node WS02006256 (-3.67%)
  
  
  ***************************
  Time-Step Critical Elements
  ***************************
  Link WS02004404WS02004405 (25.78%)
  Link WS02006238WS02006235 (23.23%)
  Link WS02003066WSF200 (11.18%)
  Link YS02001791YS02001793 (8.96%)
  Link YS02001793JiankangQianchi (6.11%)
  
  
  ********************************
  Highest Flow Instability Indexes
  ********************************
  Link WS02006113WS02006111 (37)
  Link WS02006252WS02006251 (33)
  Link YS02001602YS02001605 (28)
  Link YS02001607YS02001610 (26)
  Link WS02006238WS02006235 (24)
  
  
  *********************************
  Most Frequent Nonconverging Nodes
  *********************************
  Node CC-1 (40.06%)
  Node CC-2 (40.06%)
  Node JK-1 (40.06%)
  Node JK-2 (40.06%)
  Node WSC (40.06%)
  
  
  *************************
  Routing Time Step Summary
  *************************
  Minimum Time Step           :     0.00 sec
  Average Time Step           :     2.97 sec
  Maximum Time Step           :     6.43 sec
  % of Time in Steady State   :     0.00
  Average Iterations per Step :     4.74
  % of Steps Not Converging   :    40.06
  Time Step Frequencies       :
     30.000 - 13.228 sec      :     0.00 %
     13.228 -  5.833 sec      :    16.87 %
      5.833 -  2.572 sec      :    29.55 %
      2.572 -  1.134 sec      :    37.98 %
      1.134 -  0.500 sec      :    15.60 %
  
  
  ***************************
  Subcatchment Runoff Summary
  ***************************
  
  ------------------------------------------------------------------------------------------------------------------------------
                            Total      Total      Total      Total     Imperv       Perv      Total       Total     Peak  Runoff
                           Precip      Runon       Evap      Infil     Runoff     Runoff     Runoff      Runoff   Runoff   Coeff
  Subcatchment                 mm         mm         mm         mm         mm         mm         mm    10^6 ltr      LPS
  ------------------------------------------------------------------------------------------------------------------------------
  sub60                    101.95       0.00       0.00       1.87      88.53      10.37      98.90        1.30   839.08   0.970
  sub61                    101.95       0.00       0.00       2.71      83.50      14.63      98.13        1.80  1162.77   0.963
  sub62                    101.95       0.00       0.00       1.25      92.52       6.91      99.43        2.72  1646.31   0.975
  sub63                    101.95       0.00       0.00       4.98      71.43      24.60      96.02        2.18  1301.83   0.942
  sub64                    101.95       0.00       0.00       2.52      85.46      12.78      98.24        2.36  1339.28   0.964
  sub65                    101.95       0.00       0.00       2.18      87.45      11.08      98.53        2.71  1500.37   0.966
  sub66                    101.95       0.00       0.00       6.12      71.31      23.45      94.76        4.42  1967.35   0.929
  sub67                    101.95       0.00       0.00       1.20      92.57       6.96      99.53        1.85  1268.25   0.976
  sub68                    101.95       0.00       0.00       2.24      86.50      12.03      98.54        2.71  1686.15   0.967
  sub69                    101.95       0.00       0.00       2.01      86.56      13.29      99.84        3.70  1999.52   0.979
  sub70                    101.95       0.00       0.00       6.65      67.13      28.02      95.15        2.75  1107.32   0.933
  sub71                    101.95       0.00       0.00       1.28      92.48       6.88      99.36        2.60  1451.63   0.975
  sub72                    101.95       0.00       0.00       1.14      93.42       6.00      99.42        1.37   701.89   0.975
  
  
  ******************
  Node Depth Summary
  ******************
  
  ---------------------------------------------------------------------------------
                                 Average  Maximum  Maximum  Time of Max    Reported
                                   Depth    Depth      HGL   Occurrence   Max Depth
  Node                 Type       Meters   Meters   Meters  days hr:min      Meters
  ---------------------------------------------------------------------------------
  WS02003060           JUNCTION     0.24     0.38     5.32     0  03:09        0.38
  WS02003066           JUNCTION     0.19     0.30     5.85     0  03:09        0.30
  WS02003067           JUNCTION     0.49     0.70     6.02     0  03:08        0.70
  WS02003069           JUNCTION     0.26     0.43     5.01     0  03:10        0.43
  WS02003072           JUNCTION     0.32     0.50     4.87     0  03:14        0.50
  WS02003073           JUNCTION     0.18     0.30     4.36     0  03:15        0.30
  WS02004401           JUNCTION     0.60     0.85     6.85     0  03:06        0.85
  WS02004402           JUNCTION     0.62     0.88     6.84     0  03:06        0.88
  WS02004403           JUNCTION     0.64     0.89     6.82     0  03:06        0.89
  WS02004404           JUNCTION     0.72     0.96     6.81     0  03:06        0.96
  WS02004405           JUNCTION     0.71     0.96     6.81     0  03:06        0.96
  WS02004406           JUNCTION     0.72     0.96     6.79     0  03:07        0.96
  WS02004407           JUNCTION     0.18     0.30     6.61     0  03:07        0.30
  WS02004409           JUNCTION     0.40     0.67     6.44     0  03:07        0.67
  WS02004410           JUNCTION     0.42     0.68     6.40     0  03:13        0.68
  WS02004411           JUNCTION     0.44     0.69     6.37     0  03:13        0.69
  WS02004412           JUNCTION     0.45     0.70     6.34     0  03:11        0.70
  WS02004413           JUNCTION     0.61     0.86     6.33     0  03:08        0.86
  WS02006109           JUNCTION     0.68     1.20     7.82     0  02:40        1.15
  WS02006110           JUNCTION     0.67     1.18     7.77     0  02:40        1.05
  WS02006111           JUNCTION     0.18     0.29     6.99     0  02:51        0.29
  WS02006112           JUNCTION     0.76     1.09     6.98     0  03:15        1.06
  WS02006113           JUNCTION     0.28     0.46     7.35     0  02:51        0.45
  WS02006115           JUNCTION     0.49     0.75     6.89     0  03:05        0.75
  WS02006116           JUNCTION     0.57     0.83     6.87     0  03:06        0.83
  WS02006228           JUNCTION     0.68     1.46     8.12     0  02:40        1.19
  WS02006229           JUNCTION     0.66     1.54     8.23     0  02:40        1.14
  WS02006230           JUNCTION     0.68     1.92     8.67     0  02:40        1.29
  WS02006231           JUNCTION     0.48     1.92     9.04     0  02:44        0.99
  WS02006232           JUNCTION     0.62     1.86     8.90     0  02:36        1.79
  WS02006234           JUNCTION     0.56     1.96     9.12     0  01:45        1.96
  WS02006235           JUNCTION     0.60     2.00     9.16     0  01:33        2.00
  WS02006238           JUNCTION     0.63     2.15     9.29     0  02:30        2.15
  WS02006239           JUNCTION     0.60     2.03     9.24     0  01:41        2.03
  WS02006240           JUNCTION     0.57     2.10     9.39     0  01:54        2.10
  WS02006242           JUNCTION     0.64     1.55     8.82     0  01:41        1.55
  WS02006243           JUNCTION     0.57     1.48     8.90     0  01:41        1.48
  WS02006245           JUNCTION     0.57     1.52     9.00     0  01:41        1.52
  WS02006247           JUNCTION     0.59     1.44     8.94     0  02:42        1.43
  WS02006248           JUNCTION     0.56     1.10     8.69     0  01:35        1.10
  WS02006249           JUNCTION     0.58     1.09     8.69     0  01:35        1.09
  WS02006251           JUNCTION     0.59     1.40     9.07     0  02:44        1.27
  WS02006252           JUNCTION     0.37     1.50     9.74     0  00:00        1.12
  WS02006256           JUNCTION     1.21     2.35     9.28     0  00:00        2.35
  WSF200               JUNCTION     0.17     0.29     5.52     0  03:09        0.29
  YS02001580           JUNCTION     0.21     1.05     9.59     0  01:31        0.80
  YS02001583           JUNCTION     0.24     1.14     9.64     0  01:31        0.83
  YS02001586           JUNCTION     0.37     1.13     9.30     0  01:31        1.13
  YS02001590           JUNCTION     0.49     1.40     9.26     0  01:31        1.40
  YS02001593           JUNCTION     0.43     1.34     9.21     0  01:31        1.31
  YS02001596           JUNCTION     0.58     1.71     9.13     0  01:31        1.67
  YS02001600           JUNCTION     0.68     1.87     9.00     0  01:31        1.86
  YS02001601           JUNCTION     0.86     2.06     8.90     0  01:31        2.06
  YS02001602           JUNCTION     0.75     1.87     8.77     0  01:31        1.87
  YS02001605           JUNCTION     0.70     1.78     8.68     0  01:31        1.78
  YS02001607           JUNCTION     0.65     1.66     8.51     0  01:37        1.66
  YS02001610           JUNCTION     0.69     1.68     8.48     0  01:31        1.68
  YS02001613           JUNCTION     0.65     1.67     8.51     0  01:36        1.67
  YS02001616           JUNCTION     0.59     1.61     8.52     0  01:31        1.61
  YS02001619           JUNCTION     0.57     1.61     8.54     0  01:31        1.61
  YS02001622           JUNCTION     0.56     1.62     8.52     0  01:31        1.61
  YS02001625           JUNCTION     0.79     1.78     8.38     0  01:31        1.78
  YS02001629           JUNCTION     0.70     1.85     8.40     0  01:31        1.85
  YS02001633           JUNCTION     0.77     2.08     8.53     0  01:37        2.08
  YS02001641           JUNCTION     0.73     1.96     8.40     0  01:39        1.95
  YS02001644           JUNCTION     0.71     1.92     8.35     0  01:34        1.92
  YS02001647           JUNCTION     0.50     1.81     8.42     0  01:37        1.81
  YS02001649           JUNCTION     0.57     2.05     8.44     0  01:35        2.05
  YS02001652           JUNCTION     0.45     2.16     8.76     0  01:35        1.98
  YS02001655           JUNCTION     0.35     2.20     9.05     0  01:35        1.76
  YS02001658           JUNCTION     0.25     2.30     9.44     0  01:34        1.56
  YS02001661           JUNCTION     0.23     2.46     9.86     0  01:35        1.33
  YS02001664           JUNCTION     0.11     2.31    10.23     0  01:35        0.86
  YS02001745           JUNCTION     0.12     2.08     9.60     0  01:35        0.94
  YS02001748           JUNCTION     0.23     2.27     9.35     0  01:35        1.35
  YS02001751           JUNCTION     0.29     2.20     9.08     0  01:35        1.52
  YS02001754           JUNCTION     0.40     2.20     8.81     0  01:35        1.82
  YS02001757           JUNCTION     0.58     2.21     8.47     0  01:35        2.17
  YS02001759           JUNCTION     0.53     2.21     8.57     0  01:37        2.21
  YS02001762           JUNCTION     0.52     2.15     8.55     0  01:35        2.15
  YS02001765           JUNCTION     0.49     2.10     8.55     0  01:35        2.09
  YS02001767           JUNCTION     0.49     2.03     8.52     0  01:35        1.97
  YS02001770           JUNCTION     0.50     1.95     8.44     0  01:34        1.95
  YS02001774           JUNCTION     0.55     2.00     8.42     0  01:41        2.00
  YS02001779           JUNCTION     0.38     1.68     8.37     0  01:34        1.68
  YS02001783           JUNCTION     0.39     1.62     7.76     0  01:33        1.25
  YS02001784           JUNCTION     0.39     1.33     7.40     0  01:33        1.14
  YS02001786           JUNCTION     0.32     1.01     7.04     0  01:33        0.88
  YS02001788           JUNCTION     0.23     0.63     6.60     0  01:36        0.63
  YS02001790           JUNCTION     0.27     0.73     6.38     0  01:36        0.73
  YS02001791           JUNCTION     0.17     0.44     5.91     0  01:36        0.43
  YS02001793           JUNCTION     0.09     0.25     5.08     0  01:45        0.24
  YS02001882           JUNCTION     0.49     1.83     8.55     0  01:32        1.83
  YS02001884           JUNCTION     0.57     1.92     8.53     0  01:37        1.92
  YS02001887           JUNCTION     0.64     2.00     8.54     0  01:37        2.00
  YS02001890           JUNCTION     0.67     1.81     8.32     0  01:32        1.81
  YS02001895           JUNCTION     0.45     1.60     8.35     0  01:33        1.56
  YS02001898           JUNCTION     0.46     1.62     8.35     0  01:33        1.59
  YS02001901           JUNCTION     0.56     1.71     8.31     0  01:33        1.68
  YS02001904           JUNCTION     0.55     1.65     8.28     0  01:33        1.64
  YS02001907           JUNCTION     0.84     1.96     8.25     0  01:33        1.96
  YS02001910           JUNCTION     0.67     2.10     8.61     0  01:37        2.10
  YS02001915           JUNCTION     0.51     2.00     8.72     0  01:36        2.00
  YS02001918           JUNCTION     0.33     1.81     8.88     0  01:34        1.81
  YS02001920           JUNCTION     0.41     2.14     9.15     0  01:34        2.14
  YS02001923           JUNCTION     0.27     2.03     9.29     0  01:34        2.03
  YS02001926           JUNCTION     0.28     1.90     9.35     0  01:34        1.90
  YS02001929           JUNCTION     0.18     1.78     9.47     0  01:34        1.21
  YS02006553           JUNCTION     0.85     2.19     8.47     0  01:37        2.19
  YS02006556           JUNCTION     0.82     2.36     8.67     0  01:37        2.36
  YS02006558           JUNCTION     0.86     2.50     8.77     0  01:37        2.50
  YS02006561           JUNCTION     0.25     1.36     8.02     0  01:33        0.92
  YS02163301           JUNCTION     0.72     1.96     8.47     0  02:07        1.96
  YS02163601           JUNCTION     0.79     2.08     8.48     0  01:37        2.08
  YS02164001           JUNCTION     0.72     2.00     8.46     0  02:07        2.00
  CC-1                 OUTFALL      0.00     0.00     0.00     0  00:00        0.00
  CC-2                 OUTFALL      0.00     0.00     0.00     0  00:00        0.00
  JK-1                 OUTFALL      0.00     0.00     0.00     0  00:00        0.00
  JK-2                 OUTFALL      0.00     0.00     0.00     0  00:00        0.00
  WSC                  OUTFALL      0.18     0.30     0.97     0  03:16        0.30
  CC-storage           STORAGE      0.64     1.50     7.00     0  02:28        1.50
  JK-storage           STORAGE      0.21     2.99     3.79     0  00:00        0.68
  
  
  *******************
  Node Inflow Summary
  *******************
  
  -------------------------------------------------------------------------------------------------
                                  Maximum  Maximum                  Lateral       Total        Flow
                                  Lateral    Total  Time of Max      Inflow      Inflow     Balance
                                   Inflow   Inflow   Occurrence      Volume      Volume       Error
  Node                 Type           LPS      LPS  days hr:min    10^6 ltr    10^6 ltr     Percent
  -------------------------------------------------------------------------------------------------
  WS02003060           JUNCTION     16.53   553.11     0  03:09       0.471         5.3       0.039
  WS02003066           JUNCTION      0.00   536.26     0  03:09           0        4.83       0.031
  WS02003067           JUNCTION      0.00   536.16     0  03:08           0        4.83       0.085
  WS02003069           JUNCTION      0.32   553.23     0  03:09     0.00912        5.31       0.074
  WS02003072           JUNCTION      0.00   552.88     0  03:10           0         5.3       0.135
  WS02003073           JUNCTION      1.82   554.68     0  03:14      0.0519        5.35       0.103
  WS02004401           JUNCTION      0.00   541.11     0  03:06           0        4.93       0.206
  WS02004402           JUNCTION      0.00   540.20     0  03:06           0        4.92       0.210
  WS02004403           JUNCTION      0.00   539.64     0  03:06           0        4.91       0.205
  WS02004404           JUNCTION      0.16   539.29     0  03:06     0.00462        4.91       0.180
  WS02004405           JUNCTION      0.04   539.08     0  03:06     0.00109         4.9       0.246
  WS02004406           JUNCTION      0.00   539.35     0  03:06           0        4.89       0.426
  WS02004407           JUNCTION      0.00   538.49     0  03:07           0        4.87       0.021
  WS02004409           JUNCTION      0.00   538.05     0  03:07           0        4.87       0.053
  WS02004410           JUNCTION      0.00   537.42     0  03:07           0        4.86       0.091
  WS02004411           JUNCTION      0.00   536.90     0  03:07           0        4.86       0.114
  WS02004412           JUNCTION      0.00   536.59     0  03:08           0        4.85       0.152
  WS02004413           JUNCTION      0.00   536.48     0  03:08           0        4.85       0.282
  WS02006109           JUNCTION      1.23   563.28     0  02:40      0.0351        4.98       0.195
  WS02006110           JUNCTION      0.00   563.16     0  02:40           0        4.97       0.124
  WS02006111           JUNCTION      0.00   560.17     0  03:04           0        4.96       0.008
  WS02006112           JUNCTION      0.00   543.04     0  03:06           0        4.96       0.416
  WS02006113           JUNCTION      0.00   566.83     0  02:32           0        4.97       0.043
  WS02006115           JUNCTION      0.00   549.15     0  02:52           0        4.94       0.141
  WS02006116           JUNCTION      0.00   542.91     0  03:06           0        4.94       0.012
  WS02006228           JUNCTION      0.00   561.92     0  02:40           0        4.95       0.077
  WS02006229           JUNCTION      0.00   561.59     0  02:40           0        4.96       0.123
  WS02006230           JUNCTION     10.28   605.25     0  03:24       0.293        4.96       0.020
  WS02006231           JUNCTION      0.00   590.05     0  03:24           0        4.66      -0.140
  WS02006232           JUNCTION      0.00   588.67     0  03:24           0        4.68       0.403
  WS02006234           JUNCTION      0.00   626.14     0  01:33           0        4.65      -0.514
  WS02006235           JUNCTION      0.00   720.36     0  01:33           0         4.8       0.451
  WS02006238           JUNCTION      0.00   423.34     0  02:44           0        3.54      -0.089
  WS02006239           JUNCTION      0.00   422.43     0  03:16           0        3.46       0.073
  WS02006240           JUNCTION      0.00   422.20     0  03:40           0         3.4       0.037
  WS02006242           JUNCTION      0.00   423.45     0  03:40           0        3.37      -0.044
  WS02006243           JUNCTION      0.00   424.55     0  03:40           0        3.35      -0.091
  WS02006245           JUNCTION      0.00   425.17     0  03:40           0        3.35       0.159
  WS02006247           JUNCTION      0.00   425.04     0  03:40           0        3.35       0.018
  WS02006248           JUNCTION      0.00   426.01     0  03:34           0        3.37       0.094
  WS02006249           JUNCTION      0.00   524.32     0  01:30           0        3.65       0.231
  WS02006251           JUNCTION      0.08   407.81     0  03:15     0.00219        3.65      -0.039
  WS02006252           JUNCTION      0.00   400.00     0  00:00           0        3.65       0.003
  WS02006256           JUNCTION      0.00   349.73     0  02:19           0        1.97      -3.542
  WSF200               JUNCTION      0.00   536.33     0  03:09           0        4.83       0.008
  YS02001580           JUNCTION      0.00   138.01     0  01:31           0     0.00442       3.561
  YS02001583           JUNCTION      0.00   222.18     0  01:31           0      0.0146     -10.881
  YS02001586           JUNCTION   1107.32  1107.35     0  01:42        2.75        2.76       0.062
  YS02001590           JUNCTION      0.00   318.34     0  01:54           0        1.73      -0.036
  YS02001593           JUNCTION      0.00   318.18     0  02:07           0        1.73       0.012
  YS02001596           JUNCTION      0.00   318.03     0  01:41           0        1.73       0.005
  YS02001600           JUNCTION      0.00   318.09     0  02:18           0        1.73       0.009
  YS02001601           JUNCTION   1999.52  2317.07     0  01:40         3.7        5.42       0.014
  YS02001602           JUNCTION      0.00   569.24     0  01:31           0        2.75       0.015
  YS02001605           JUNCTION      0.00   568.91     0  01:31           0        2.57       0.013
  YS02001607           JUNCTION      0.00   568.93     0  01:31           0        2.57       0.077
  YS02001610           JUNCTION      0.00   953.34     0  01:42           0        3.29       0.077
  YS02001613           JUNCTION      0.00   617.50     0  01:41           0        2.52       0.059
  YS02001616           JUNCTION      0.00   617.33     0  01:42           0        2.52       0.015
  YS02001619           JUNCTION   1967.35  1967.35     0  01:41        4.42        6.22       0.000
  YS02001622           JUNCTION      0.00  1053.94     0  01:47           0        5.38      -0.011
  YS02001625           JUNCTION      0.00  1504.92     0  01:47           0        5.78       0.169
  YS02001629           JUNCTION      0.00   948.96     0  01:31           0        4.39      -0.001
  YS02001633           JUNCTION   1500.57  1500.57     0  01:40        2.72        6.46       0.054
  YS02001641           JUNCTION      0.00  1442.78     0  01:33           0        5.84       0.050
  YS02001644           JUNCTION   1339.32  2128.10     0  01:39        2.36         8.2       0.039
  YS02001647           JUNCTION      0.00  1940.81     0  01:33           0        6.96       0.006
  YS02001649           JUNCTION      0.00  2224.83     0  01:34           0        9.14       0.007
  YS02001652           JUNCTION      0.00  1305.45     0  01:38           0        2.18      -0.069
  YS02001655           JUNCTION      0.15  1305.63     0  01:38     0.00439        2.18      -0.022
  YS02001658           JUNCTION      0.00  1304.60     0  01:38           0        2.18      -0.074
  YS02001661           JUNCTION      0.00  1304.56     0  01:38           0        2.18       0.024
  YS02001664           JUNCTION   1301.83  1301.83     0  01:39        2.18        2.18      -0.029
  YS02001745           JUNCTION    839.08   839.08     0  01:38         1.3         1.3       0.107
  YS02001748           JUNCTION      0.04   852.01     0  01:38     0.00128         1.3      -0.257
  YS02001751           JUNCTION      0.01   852.37     0  01:38    0.000313        1.31       0.059
  YS02001754           JUNCTION      0.26   852.21     0  01:38     0.00741        1.33      -0.133
  YS02001757           JUNCTION      0.00  3595.13     0  01:40           0        14.3       0.042
  YS02001759           JUNCTION   1162.81  1594.38     0  01:35         1.8        3.87      -0.001
  YS02001762           JUNCTION      0.00   865.95     0  01:35           0        2.07      -0.000
  YS02001765           JUNCTION      0.00   867.37     0  01:35           0        2.07       0.019
  YS02001767           JUNCTION      0.54   869.53     0  01:35      0.0152        2.07       0.005
  YS02001770           JUNCTION   1646.47  1646.47     0  01:39        2.73        2.77      -0.012
  YS02001774           JUNCTION      0.00   851.96     0  01:42           0       0.617       0.208
  YS02001779           JUNCTION      0.01   851.32     0  01:42    0.000142       0.572      -0.095
  YS02001783           JUNCTION      0.00  1189.45     0  01:37           0        5.22       0.003
  YS02001784           JUNCTION      1.06  1188.81     0  01:37      0.0302        5.25       0.010
  YS02001786           JUNCTION      0.06  1190.58     0  01:37      0.0016        5.25       0.014
  YS02001788           JUNCTION      0.07  1193.68     0  01:37     0.00202        5.25       0.005
  YS02001790           JUNCTION      0.15  1186.62     0  01:39     0.00442        5.26       0.017
  YS02001791           JUNCTION      0.00  1308.18     0  01:36           0        5.26      -0.026
  YS02001793           JUNCTION      0.00  1272.37     0  01:40           0        5.26      -0.015
  YS02001882           JUNCTION      0.00    95.17     0  01:32           0      0.0139       4.024
  YS02001884           JUNCTION      0.00   127.29     0  01:32           0      0.0506       5.005
  YS02001887           JUNCTION   1268.70  1268.72     0  01:38        1.86         1.9       0.234
  YS02001890           JUNCTION      0.00  1268.27     0  01:38           0        1.86       0.282
  YS02001895           JUNCTION      0.00   542.78     0  01:33           0        1.48       0.106
  YS02001898           JUNCTION      0.00   541.87     0  01:33           0        1.48      -0.008
  YS02001901           JUNCTION      0.00   547.85     0  01:32           0        1.48       0.234
  YS02001904           JUNCTION      0.00   551.34     0  01:32           0        1.48       0.204
  YS02001907           JUNCTION      0.00  3026.44     0  01:39           0        5.68       0.323
  YS02001910           JUNCTION      0.00  1993.13     0  01:43           0        4.01       0.186
  YS02001915           JUNCTION   1451.65  2154.90     0  01:40         2.6        4.09       0.034
  YS02001918           JUNCTION      0.00   706.07     0  01:40           0        1.53       0.017
  YS02001920           JUNCTION      2.87   705.57     0  01:40      0.0818        1.51       0.044
  YS02001923           JUNCTION      0.04   702.85     0  01:40     0.00107        1.41      -0.048
  YS02001926           JUNCTION      0.05  1026.04     0  01:33     0.00149        1.39      -0.015
  YS02001929           JUNCTION    701.89   830.01     0  01:34        1.37        1.37      -0.101
  YS02006553           JUNCTION      0.00   797.38     0  02:11           0        2.91       0.411
  YS02006556           JUNCTION      0.00   797.22     0  02:11           0        2.92       0.277
  YS02006558           JUNCTION   1687.03  1687.03     0  01:39        2.74        5.44       0.062
  YS02006561           JUNCTION      0.00  1186.57     0  01:33           0        5.22      -0.000
  YS02163301           JUNCTION      0.00   917.18     0  01:33           0        4.37       0.042
  YS02163601           JUNCTION      0.11  1443.96     0  01:33     0.00313        5.84       0.087
  YS02164001           JUNCTION      0.00  1443.64     0  01:33           0        5.84       0.040
  CC-1                 OUTFALL       0.00   683.00     0  00:00           0        6.15       0.000
  CC-2                 OUTFALL       0.00   683.00     0  00:00           0        6.15       0.000
  JK-1                 OUTFALL       0.00  1000.00     0  00:00           0        1.73       0.000
  JK-2                 OUTFALL       0.00  1000.00     0  00:00           0        1.73       0.000
  WSC                  OUTFALL       0.00   554.67     0  03:16           0        5.34       0.000
  CC-storage           STORAGE       0.00  3594.10     0  01:41           0        16.5      -0.285
  JK-storage           STORAGE       0.00  1413.81     0  01:40           0        5.41      -0.359
  
  
  **********************
  Node Surcharge Summary
  **********************
  
  Surcharging occurs when water rises above the top of the highest conduit.
  ---------------------------------------------------------------------
                                               Max. Height   Min. Depth
                                   Hours       Above Crown    Below Rim
  Node                 Type      Surcharged         Meters       Meters
  ---------------------------------------------------------------------
  WS02006109           JUNCTION        2.23          0.377        1.443
  WS02006110           JUNCTION        0.61          0.272        1.578
  WS02006112           JUNCTION        1.51          0.093        1.587
  WS02006228           JUNCTION        2.22          0.634        1.566
  WS02006229           JUNCTION        2.24          0.741        1.709
  WS02006230           JUNCTION        0.69          0.843        0.727
  WS02006231           JUNCTION        1.32          1.210        0.320
  WS02006232           JUNCTION        2.32          1.158        0.322
  WS02006234           JUNCTION        1.80          1.240        0.000
  WS02006235           JUNCTION        2.01          1.290        0.000
  WS02006238           JUNCTION        2.19          1.430        0.000
  WS02006239           JUNCTION        2.16          1.290        0.000
  WS02006240           JUNCTION        2.25          1.390        0.000
  WS02006242           JUNCTION        2.34          0.820        0.000
  WS02006243           JUNCTION        2.25          0.770        0.000
  WS02006245           JUNCTION        2.25          0.809        0.041
  WS02006247           JUNCTION        2.27          0.728        0.032
  WS02006248           JUNCTION        2.24          0.380        0.000
  WS02006249           JUNCTION        2.26          0.390        0.000
  WS02006251           JUNCTION        1.70          0.374        0.806
  WS02006252           JUNCTION        2.53          1.100        0.000
  WS02006256           JUNCTION        5.65          2.050        0.000
  YS02001580           JUNCTION        0.97          0.450        0.000
  YS02001583           JUNCTION        0.98          0.500        0.000
  YS02001586           JUNCTION        1.11          0.510        0.000
  YS02001590           JUNCTION        1.20          0.750        0.000
  YS02001593           JUNCTION        1.20          0.725        0.115
  YS02001596           JUNCTION        1.32          0.978        0.092
  YS02001600           JUNCTION        1.52          1.190        0.000
  YS02001601           JUNCTION        1.78          1.440        0.000
  YS02001602           JUNCTION        1.70          1.270        0.000
  YS02001605           JUNCTION        1.67          1.180        0.000
  YS02001607           JUNCTION        1.15          0.661        0.019
  YS02001610           JUNCTION        1.18          0.680        0.000
  YS02001613           JUNCTION        1.14          0.670        0.030
  YS02001616           JUNCTION        1.09          0.610        0.000
  YS02001619           JUNCTION        1.08          0.610        0.000
  YS02001622           JUNCTION        1.07          0.620        0.000
  YS02001625           JUNCTION        1.28          0.780        0.000
  YS02001629           JUNCTION        1.00          0.470        0.000
  YS02001633           JUNCTION        1.30          1.060        0.000
  YS02001641           JUNCTION        1.22          0.959        0.141
  YS02001644           JUNCTION        1.18          0.920        0.000
  YS02001647           JUNCTION        0.92          0.809        0.091
  YS02001649           JUNCTION        1.07          1.050        0.000
  YS02001652           JUNCTION        0.80          1.130        0.000
  YS02001655           JUNCTION        0.54          1.200        0.000
  YS02001658           JUNCTION        0.33          1.300        0.000
  YS02001661           JUNCTION        0.17          1.390        0.000
  YS02001664           JUNCTION        0.01          1.310        0.000
  YS02001745           JUNCTION        0.01          1.084        0.266
  YS02001748           JUNCTION        0.21          1.190        0.000
  YS02001751           JUNCTION        0.39          1.200        0.000
  YS02001754           JUNCTION        0.60          1.150        0.000
  YS02001757           JUNCTION        1.15          1.210        0.000
  YS02001759           JUNCTION        1.03          1.210        0.000
  YS02001762           JUNCTION        0.98          1.150        0.000
  YS02001765           JUNCTION        0.90          1.100        0.000
  YS02001767           JUNCTION        0.85          1.030        0.000
  YS02001770           JUNCTION        0.82          0.920        0.000
  YS02001774           JUNCTION        0.95          1.003        0.047
  YS02001779           JUNCTION        0.61          0.680        0.000
  YS02001783           JUNCTION        0.81          0.818        0.782
  YS02001784           JUNCTION        0.78          0.533        0.957
  YS02001786           JUNCTION        0.66          0.207        1.223
  YS02001882           JUNCTION        0.74          0.830        0.000
  YS02001884           JUNCTION        0.75          0.857        0.013
  YS02001887           JUNCTION        0.80          0.950        0.000
  YS02001890           JUNCTION        0.81          0.760        0.000
  YS02001895           JUNCTION        0.73          0.604        0.146
  YS02001898           JUNCTION        0.72          0.588        0.152
  YS02001901           JUNCTION        0.78          0.706        0.164
  YS02001904           JUNCTION        0.77          0.646        0.204
  YS02001907           JUNCTION        1.05          0.950        0.000
  YS02001910           JUNCTION        0.85          1.100        0.000
  YS02001915           JUNCTION        0.74          1.000        0.000
  YS02001918           JUNCTION        0.64          0.810        0.000
  YS02001920           JUNCTION        0.66          1.140        0.000
  YS02001923           JUNCTION        0.27          0.820        0.000
  YS02001926           JUNCTION        0.30          0.900        0.000
  YS02001929           JUNCTION        0.16          0.780        0.000
  YS02006553           JUNCTION        1.08          1.190        0.000
  YS02006556           JUNCTION        0.94          1.320        0.030
  YS02006558           JUNCTION        0.93          1.400        0.000
  YS02006561           JUNCTION        0.60          0.556        0.594
  YS02163301           JUNCTION        1.28          0.957        0.073
  YS02163601           JUNCTION        1.33          1.080        0.000
  YS02164001           JUNCTION        1.23          0.998        0.102
  
  
  *********************
  Node Flooding Summary
  *********************
  
  Flooding refers to all water that overflows a node, whether it ponds or not.
  --------------------------------------------------------------------------
                                                             Total   Maximum
                                 Maximum   Time of Max       Flood    Ponded
                        Hours       Rate    Occurrence      Volume     Depth
  Node                 Flooded       LPS   days hr:min    10^6 ltr    Meters
  --------------------------------------------------------------------------
  WS02006234              0.01    102.10      0  01:45       0.000     0.000
  WS02006235              0.01    222.03      0  01:33       0.000     0.000
  WS02006238              0.01     27.88      0  02:30       0.000     0.000
  WS02006239              0.01      9.41      0  01:54       0.000     0.000
  WS02006240              0.01     28.85      0  01:54       0.000     0.000
  WS02006242              0.02     36.94      0  01:41       0.001     0.000
  WS02006243              0.01      6.91      0  01:41       0.000     0.000
  WS02006248              0.22     35.18      0  02:42       0.011     0.000
  WS02006249              1.53     78.44      0  02:38       0.274     0.000
  WS02006252              0.01    251.38      0  01:29       0.000     0.000
  WS02006256              1.82    323.92      0  02:19       0.707     0.000
  YS02001580              0.01     73.26      0  01:31       0.000     0.000
  YS02001583              0.01    129.71      0  01:31       0.000     0.000
  YS02001586              0.82    789.79      0  01:42       1.020     0.000
  YS02001590              0.01     13.33      0  01:31       0.000     0.000
  YS02001600              0.01      3.50      0  01:31       0.000     0.000
  YS02001601              1.01   1919.22      0  01:40       2.672     0.000
  YS02001602              0.85     62.06      0  01:58       0.176     0.000
  YS02001605              0.01      1.98      0  01:31       0.000     0.000
  YS02001610              0.76    953.25      0  01:42       1.485     0.000
  YS02001616              0.13     36.81      0  01:31       0.001     0.000
  YS02001619              0.19    304.31      0  01:41       0.125     0.000
  YS02001622              0.01    168.99      0  01:31       0.000     0.000
  YS02001625              0.69   1504.78      0  01:47       2.003     0.000
  YS02001629              0.25    529.32      0  01:37       0.244     0.000
  YS02001633              0.01      3.39      0  01:37       0.000     0.000
  YS02001644              0.30   2127.15      0  01:39       1.237     0.000
  YS02001649              0.01    280.43      0  01:35       0.006     0.000
  YS02001652              0.01      9.08      0  01:35       0.000     0.000
  YS02001655              0.01     77.72      0  01:35       0.000     0.000
  YS02001658              0.01    295.37      0  01:34       0.001     0.000
  YS02001661              0.01     63.29      0  01:35       0.000     0.000
  YS02001664              0.01    192.88      0  01:35       0.000     0.000
  YS02001748              0.01    298.94      0  01:35       0.001     0.000
  YS02001751              0.01     47.88      0  01:35       0.000     0.000
  YS02001754              0.01    108.62      0  01:35       0.000     0.000
  YS02001757              0.01    129.61      0  01:35       0.001     0.000
  YS02001759              0.01      1.65      0  01:37       0.000     0.000
  YS02001762              0.01     29.56      0  01:35       0.000     0.000
  YS02001765              0.01     20.52      0  01:35       0.000     0.000
  YS02001767              0.01     12.81      0  01:35       0.000     0.000
  YS02001770              0.13    438.42      0  01:38       0.122     0.000
  YS02001779              0.28    851.22      0  01:42       0.552     0.000
  YS02001882              0.01     21.14      0  01:32       0.000     0.000
  YS02001887              0.01      2.48      0  01:37       0.000     0.000
  YS02001890              0.29    751.23      0  01:38       0.374     0.000
  YS02001907              0.57   3026.21      0  01:39       2.942     0.000
  YS02001910              0.01      0.91      0  01:37       0.000     0.000
  YS02001915              0.10    162.27      0  01:40       0.033     0.000
  YS02001918              0.01    225.09      0  01:34       0.004     0.000
  YS02001920              0.01     70.59      0  01:34       0.000     0.000
  YS02001923              0.01     80.21      0  01:34       0.000     0.000
  YS02001926              0.01    583.48      0  01:34       0.004     0.000
  YS02001929              0.01    620.05      0  01:34       0.002     0.000
  YS02006553              0.01      1.02      0  01:37       0.000     0.000
  YS02006558              0.01      0.02      0  01:37       0.000     0.000
  YS02163601              0.01      2.77      0  02:07       0.000     0.000
  
  
  **********************
  Storage Volume Summary
  **********************
  
  ------------------------------------------------------------------------------------------------
                         Average    Avg   Evap  Exfil     Maximum    Max    Time of Max    Maximum
                          Volume   Pcnt   Pcnt   Pcnt      Volume   Pcnt     Occurrence    Outflow
  Storage Unit           1000 m³   Full   Loss   Loss     1000 m³   Full    days hr:min        LPS
  ------------------------------------------------------------------------------------------------
  CC-storage               1.787   27.9    0.0    0.0       4.182   65.2       0  02:28    1783.53
  JK-storage               0.010    3.6    0.0    0.0       0.150   51.6       0  00:00    2300.00
  
  
  ***********************
  Outfall Loading Summary
  ***********************
  
  -----------------------------------------------------------
                         Flow       Avg       Max       Total
                         Freq      Flow      Flow      Volume
  Outfall Node           Pcnt       LPS       LPS    10^6 ltr
  -----------------------------------------------------------
  CC-1                  55.05    683.00    683.00       6.147
  CC-2                  55.05    683.00    683.00       6.147
  JK-1                  10.80   1000.00   1000.00       1.732
  JK-2                  10.80   1000.00   1000.00       1.732
  WSC                   99.94    270.75    554.67       5.341
  -----------------------------------------------------------
  System                46.33   3636.75   3904.82      21.099
  
  
  ********************
  Link Flow Summary
  ********************
  
  -----------------------------------------------------------------------------
                                 Maximum  Time of Max   Maximum    Max/    Max/
                                  |Flow|   Occurrence   |Veloc|    Full    Full
  Link                 Type          LPS  days hr:min     m/sec    Flow   Depth
  -----------------------------------------------------------------------------
  1                    CONDUIT    554.67     0  03:16      2.83    0.19    0.30
  WS02003060WS02003069 CONDUIT    552.91     0  03:09      1.64    0.22    0.34
  WS02003066WSF200     CONDUIT    536.33     0  03:09      2.85    0.09    0.22
  WS02003067WS02003066 CONDUIT    536.26     0  03:09      1.21    0.17    0.42
  WS02003069WS02003072 CONDUIT    552.88     0  03:10      1.37    0.27    0.39
  WS02003072WS02003073 CONDUIT    552.86     0  03:14      1.43    1.19    0.37
  WS02004401WS02004402 CONDUIT    540.20     0  03:06      1.22    0.65    0.86
  WS02004402WS02004403 CONDUIT    539.64     0  03:06      1.24    0.78    0.88
  WS02004403WS02004404 CONDUIT    539.12     0  03:06      1.24    0.39    0.93
  WS02004404WS02004405 CONDUIT    539.05     0  03:06      1.45    5.28    0.96
  WS02004405WS02004406 CONDUIT    539.35     0  03:06      1.46    1.06    0.96
  WS02004406WS02004407 CONDUIT    538.49     0  03:07      1.04    0.24    0.63
  WS02004407WS02004409 CONDUIT    538.05     0  03:07      1.59    0.19    0.48
  WS02004409WS02004410 CONDUIT    537.42     0  03:07      1.06    0.70    0.67
  WS02004410WS02004411 CONDUIT    536.90     0  03:07      1.13    0.73    0.69
  WS02004411WS02004412 CONDUIT    536.59     0  03:08      1.20    0.76    0.69
  WS02004412WS02004413 CONDUIT    536.48     0  03:08      1.22    0.36    0.78
  WS02004413WS02003067 CONDUIT    536.16     0  03:08      1.11    0.23    0.59
  WS02006109WS02006110 CONDUIT    563.16     0  02:40      1.12    1.08    1.00
  WS02006110WS02006113 CONDUIT    566.83     0  02:32      1.36    0.52    0.79
  WS02006111WS02006112 CONDUIT    543.04     0  03:06      1.95    0.26    0.67
  WS02006112WS02006115 CONDUIT    549.15     0  02:52      0.84    0.32    0.87
  WS02006113WS02006111 CONDUIT    560.17     0  03:04      2.47    0.67    0.46
  WS02006115WS02006116 CONDUIT    542.91     0  03:06      1.29    0.70    0.76
  WS02006116WS02004401 CONDUIT    541.11     0  03:06      1.21    0.75    0.84
  WS02006228WS02006109 CONDUIT    562.05     0  02:40      1.12    2.46    1.00
  WS02006229WS02006228 CONDUIT    561.92     0  02:40      1.12    1.86    1.00
  WS02006230WS02006229 CONDUIT    561.59     0  02:40      1.46   12.50    1.00
  WS02006231WS02006230 CONDUIT    594.97     0  03:24      1.61    9.02    1.00
  WS02006232WS02006231 CONDUIT    590.05     0  03:24      1.54    1.24    1.00
  WS02006234WS02006232 CONDUIT    588.67     0  03:24      1.53    1.19    1.00
  WS02006235WS02006234 CONDUIT    626.14     0  01:33      1.77    6.61    1.00
  WS02006238WS02006235 CONDUIT    476.85     0  01:33      1.45    1.06    1.00
  WS02006239WS02006238 CONDUIT    423.34     0  02:44      1.11    1.35    1.00
  WS02006240WS02006239 CONDUIT    422.43     0  03:16      1.24    1.33    1.00
  WS02006242WS02006240 CONDUIT    422.20     0  03:40      1.16    1.68    1.00
  WS02006243WS02006242 CONDUIT    423.45     0  03:40      1.38    0.90    1.00
  WS02006245WS02006243 CONDUIT    424.55     0  03:40      1.44    1.26    1.00
  WS02006247WS02006245 CONDUIT    425.17     0  03:40      1.43    3.37    1.00
  WS02006248WS02006247 CONDUIT    425.04     0  03:40      1.45    0.93    1.00
  WS02006249WS02006248 CONDUIT    426.01     0  03:34      1.37    2.33    1.00
  WS02006251WS02006249 CONDUIT    524.32     0  01:30      2.13    1.51    1.00
  WS02006252WS02006251 CONDUIT    407.74     0  03:15      4.89    1.50    1.00
  WS02006256WS02006235 CONDUIT    288.91     0  00:00      4.23    3.06    1.00
  WSF200WS02003060     CONDUIT    536.58     0  03:09      2.06    0.12    0.28
  YS02001580YS02001583 CONDUIT    138.01     0  01:31      0.83    0.53    1.00
  YS02001583YS02001586 CONDUIT    189.10     0  01:31      0.88    0.29    1.00
  YS02001586YS02001590 CONDUIT    318.34     0  01:54      1.27    0.56    1.00
  YS02001590YS02001593 CONDUIT    318.18     0  02:07      1.13    2.00    1.00
  YS02001593YS02001596 CONDUIT    318.03     0  01:41      1.75    0.50    1.00
  YS02001596YS02001600 CONDUIT    318.09     0  02:18      1.24    0.62    1.00
  YS02001600YS02001601 CONDUIT    318.70     0  01:37      1.13    0.55    1.00
  YS02001601YS02001602 CONDUIT    569.24     0  01:31      2.01    2.06    1.00
  YS02001602YS02001605 CONDUIT    568.91     0  01:31      2.01   12.04    1.00
  YS02001605YS02001607 CONDUIT    568.93     0  01:31      2.01    3.12    1.00
  YS02001607YS02001610 CONDUIT    547.70     0  01:31      0.71    0.52    1.00
  YS02001610YS02001613 CONDUIT    617.23     0  01:42      0.79    0.71    1.00
  YS02001613YS02001616 CONDUIT    617.50     0  01:41      0.79    0.53    1.00
  YS02001616YS02001619 CONDUIT    617.33     0  01:42      0.79    1.07    1.00
  YS02001619YS02001622 CONDUIT   1053.94     0  01:47      1.34    1.55    1.00
  YS02001622YS02001625 CONDUIT   1053.64     0  01:41      1.34    0.56    1.00
  YS02001625YS02001629 CONDUIT    948.96     0  01:31      1.21    0.45    1.00
  YS02001629YS02163301 CONDUIT    917.18     0  01:33      1.17    1.13    1.00
  YS02001633YS02163601 CONDUIT   1443.85     0  01:33      1.84    1.52    1.00
  YS02001641YS02001644 CONDUIT   1442.56     0  01:33      1.84    4.66    1.00
  YS02001644YS02001647 CONDUIT   1940.81     0  01:33      2.48    1.14    1.00
  YS02001647YS02001649 CONDUIT   1932.05     0  01:33      2.46    1.02    1.00
  YS02001649YS02001757 CONDUIT   2224.30     0  01:33      2.83    1.35    1.00
  YS02001652YS02001649 CONDUIT   1305.43     0  01:38      1.66    0.65    1.00
  YS02001655YS02001652 CONDUIT   1305.45     0  01:38      1.66    0.63    1.00
  YS02001658YS02001655 CONDUIT   1305.48     0  01:38      2.03    0.55    1.00
  YS02001661YS02001658 CONDUIT   1304.60     0  01:38      2.46    0.51    1.00
  YS02001664YS02001661 CONDUIT   1304.56     0  01:38      2.53    0.41    1.00
  YS02001745YS02001748 CONDUIT    851.97     0  01:38      2.39    0.33    1.00
  YS02001748YS02001751 CONDUIT    852.36     0  01:38      1.87    0.43    1.00
  YS02001751YS02001754 CONDUIT    851.95     0  01:38      1.59    0.41    1.00
  YS02001754YS02001757 CONDUIT    852.43     0  01:38      1.09    0.34    1.00
  YS02001757CaochengTiaoxuchi CONDUIT   3594.10     0  01:41      6.09    1.56    1.00
  YS02001759YS02001757 CONDUIT   1592.34     0  01:35      2.03    1.13    1.00
  YS02001762YS02001759 CONDUIT    864.56     0  01:35      1.10    1.00    1.00
  YS02001765YS02001762 CONDUIT    865.95     0  01:35      1.10    0.81    1.00
  YS02001767YS02001765 CONDUIT    867.37     0  01:35      1.10    1.09    1.00
  YS02001770YS02001767 CONDUIT    869.00     0  01:35      1.11    3.44    1.00
  YS02001774YS02001770 CONDUIT    851.96     0  01:42      1.08    0.54    1.00
  YS02001779YS02001774 CONDUIT    851.32     0  01:42      1.08    0.43    1.00
  YS02001783YS02001784 CONDUIT   1187.75     0  01:37      2.36    1.64    1.00
  YS02001784YS02001785 CONDUIT   1190.53     0  01:37      2.37    2.77    1.00
  YS02001786YS02001788 CONDUIT   1193.61     0  01:37      2.53    2.30    0.89
  YS02001788YS02001790 CONDUIT   1186.46     0  01:39      2.74    0.87    0.85
  YS02001790YS02001791 CONDUIT   1308.18     0  01:36      3.44    1.42    0.71
  YS02001791YS02001793 CONDUIT   1272.37     0  01:40      6.79    0.55    0.43
  YS02001793JiankangQianchi CONDUIT   1413.81     0  01:40     14.71    0.11    0.50
  YS02001882YS02001884 CONDUIT     95.17     0  01:32      0.19    0.11    1.00
  YS02001884YS02001887 CONDUIT    127.29     0  01:32      0.16    0.17    1.00
  YS02001887YS02001890 CONDUIT   1268.27     0  01:38      1.61    2.17    1.00
  YS02001890YS02001895 CONDUIT    542.78     0  01:33      0.69    0.25    1.00
  YS02001895YS02001898 CONDUIT    541.87     0  01:33      0.69    0.94    1.00
  YS02001898YS02001901 CONDUIT    547.85     0  01:32      0.70    0.35    1.00
  YS02001901YS02001904 CONDUIT    551.34     0  01:32      0.70    0.86    1.00
  YS02001904YS02001907 CONDUIT    555.49     0  01:32      0.71    0.19    1.00
  YS02001907YS02006553 CONDUIT    797.38     0  02:11      0.89    0.94    1.00
  YS02001910YS02001907 CONDUIT   1993.00     0  01:42      2.54    1.12    1.00
  YS02001915YS02001910 CONDUIT   1993.13     0  01:43      2.54    0.99    1.00
  YS02001918YS02001915 CONDUIT    705.45     0  01:40      0.90    0.39    1.00
  YS02001920YS02001918 CONDUIT    706.07     0  01:40      0.90    0.68    1.00
  YS02001923YS02001920 CONDUIT    702.70     0  01:40      0.89    0.32    1.00
  YS02001926YS02001923 CONDUIT    797.26     0  01:33      1.25    1.14    1.00
  YS02001929YS02001926 CONDUIT    702.25     0  01:40      1.20    0.33    1.00
  YS02006553YS02006556 CONDUIT    797.22     0  02:11      1.02    0.68    1.00
  YS02006556YS02006558 CONDUIT    798.27     0  02:11      1.02    0.63    1.00
  YS02006558YS02006561 CONDUIT   1186.57     0  01:33      4.20    2.62    1.00
  YS02006561YS02001783 CONDUIT   1189.45     0  01:37      2.37    0.62    1.00
  YS02163301YS02001633 CONDUIT    917.40     0  01:32      1.17    0.86    1.00
  YS02163601YS02164001 CONDUIT   1443.64     0  01:33      1.84    1.28    1.00
  YS02164001YS02001641 CONDUIT   1442.78     0  01:33      1.84    1.97    1.00
  CC-R1                PUMP       683.00     0  00:00              1.00
  CC-R2                PUMP       683.00     0  00:00              1.00
  CC-S1                PUMP       200.00     0  00:00              1.00
  CC-S2                PUMP       200.00     0  00:00              1.00
  JK-R1                PUMP      1000.00     0  00:00              1.00
  JK-R2                PUMP      1000.00     0  00:00              1.00
  JK-S                 PUMP       300.00     0  00:00              1.00
  
  
  ***************************
  Flow Classification Summary
  ***************************
  
  -------------------------------------------------------------------------------------
                      Adjusted    ---------- Fraction of Time in Flow Class ---------- 
                       /Actual         Up    Down  Sub   Sup   Up    Down  Norm  Inlet 
  Conduit               Length    Dry  Dry   Dry   Crit  Crit  Crit  Crit  Ltd   Ctrl  
  -------------------------------------------------------------------------------------
  1                       1.00   0.00  0.00  0.00  0.00  1.00  0.00  0.00  0.36  0.00
  WS02003060WS02003069    1.00   0.00  0.00  0.00  0.98  0.02  0.00  0.00  0.71  0.00
  WS02003066WSF200        1.00   0.05  0.00  0.00  0.00  0.95  0.00  0.00  0.80  0.00
  WS02003067WS02003066    1.00   0.05  0.00  0.00  0.95  0.00  0.00  0.00  0.00  0.00
  WS02003069WS02003072    1.00   0.00  0.00  0.00  0.99  0.01  0.00  0.00  0.71  0.00
  WS02003072WS02003073    1.00   0.00  0.00  0.00  0.00  0.00  0.00  1.00  0.00  0.00
  WS02004401WS02004402    1.00   0.02  0.00  0.00  0.98  0.00  0.00  0.00  0.00  0.00
  WS02004402WS02004403    1.00   0.02  0.00  0.00  0.98  0.00  0.00  0.00  0.00  0.00
  WS02004403WS02004404    1.00   0.00  0.03  0.00  0.97  0.00  0.00  0.00  0.00  0.00
  WS02004404WS02004405    1.00   0.00  0.00  0.00  1.00  0.00  0.00  0.00  0.01  0.00
  WS02004405WS02004406    1.00   0.00  0.00  0.00  1.00  0.00  0.00  0.00  0.00  0.00
  WS02004406WS02004407    1.00   0.00  0.03  0.00  0.97  0.00  0.00  0.00  0.00  0.00
  WS02004407WS02004409    1.00   0.03  0.00  0.00  0.95  0.01  0.00  0.00  0.95  0.00
  WS02004409WS02004410    1.00   0.03  0.00  0.00  0.96  0.00  0.00  0.00  0.00  0.00
  WS02004410WS02004411    1.00   0.04  0.00  0.00  0.96  0.00  0.00  0.00  0.00  0.00
  WS02004411WS02004412    1.00   0.04  0.00  0.00  0.96  0.00  0.00  0.00  0.00  0.00
  WS02004412WS02004413    1.00   0.04  0.00  0.00  0.96  0.00  0.00  0.00  0.00  0.00
  WS02004413WS02003067    1.00   0.04  0.01  0.00  0.00  0.00  0.95  0.00  0.00  0.00
  WS02006109WS02006110    1.00   0.00  0.01  0.00  0.98  0.00  0.01  0.00  0.00  0.00
  WS02006110WS02006113    1.00   0.01  0.01  0.00  0.98  0.00  0.00  0.00  0.00  0.00
  WS02006111WS02006112    1.00   0.02  0.00  0.00  0.98  0.00  0.00  0.00  0.98  0.00
  WS02006112WS02006115    1.00   0.02  0.00  0.00  0.97  0.00  0.00  0.00  0.00  0.00
  WS02006113WS02006111    1.00   0.02  0.00  0.00  0.00  0.98  0.00  0.00  0.12  0.00
  WS02006115WS02006116    1.00   0.02  0.00  0.00  0.97  0.00  0.00  0.01  0.00  0.00
  WS02006116WS02004401    1.00   0.02  0.00  0.00  0.98  0.00  0.00  0.00  0.00  0.00
  WS02006228WS02006109    1.00   0.00  0.00  0.00  1.00  0.00  0.00  0.00  0.00  0.00
  WS02006229WS02006228    1.00   0.00  0.00  0.00  0.99  0.00  0.00  0.01  0.00  0.00
  WS02006230WS02006229    1.00   0.00  0.00  0.00  0.99  0.00  0.00  0.01  0.02  0.00
  WS02006231WS02006230    1.00   0.00  0.00  0.00  0.30  0.00  0.70  0.00  0.00  0.00
  WS02006232WS02006231    1.00   0.00  0.00  0.00  0.98  0.00  0.02  0.00  0.00  0.00
  WS02006234WS02006232    1.00   0.00  0.00  0.00  1.00  0.00  0.00  0.00  0.05  0.00
  WS02006235WS02006234    1.00   0.00  0.00  0.00  0.93  0.00  0.07  0.00  0.00  0.00
  WS02006238WS02006235    1.00   0.00  0.00  0.00  0.99  0.01  0.00  0.00  0.00  0.00
  WS02006239WS02006238    1.00   0.00  0.00  0.00  1.00  0.00  0.00  0.00  0.24  0.00
  WS02006240WS02006239    1.00   0.00  0.00  0.00  0.62  0.00  0.00  0.37  0.04  0.00
  WS02006242WS02006240    1.00   0.00  0.00  0.00  1.00  0.00  0.00  0.00  0.03  0.00
  WS02006243WS02006242    1.00   0.00  0.00  0.00  0.99  0.00  0.00  0.00  0.63  0.00
  WS02006245WS02006243    1.00   0.00  0.00  0.00  0.47  0.00  0.00  0.53  0.01  0.00
  WS02006247WS02006245    1.00   0.00  0.00  0.00  0.99  0.00  0.00  0.01  0.00  0.00
  WS02006248WS02006247    1.00   0.00  0.00  0.00  0.99  0.00  0.00  0.00  0.12  0.00
  WS02006249WS02006248    1.00   0.00  0.00  0.00  0.35  0.00  0.65  0.00  0.00  0.00
  WS02006251WS02006249    1.00   0.00  0.00  0.00  1.00  0.00  0.00  0.00  0.66  0.00
  WS02006252WS02006251    1.00   0.00  0.68  0.00  0.21  0.00  0.11  0.00  0.53  0.00
  WS02006256WS02006235    1.00   0.00  0.00  0.00  0.98  0.02  0.00  0.00  0.00  0.00
  WSF200WS02003060        1.00   0.00  0.05  0.00  0.48  0.47  0.00  0.00  0.65  0.00
  YS02001580YS02001583    1.00   0.19  0.57  0.00  0.24  0.00  0.00  0.00  0.66  0.00
  YS02001583YS02001586    1.00   0.40  0.30  0.00  0.30  0.00  0.00  0.00  0.66  0.00
  YS02001586YS02001590    1.00   0.13  0.00  0.00  0.45  0.04  0.00  0.38  0.33  0.00
  YS02001590YS02001593    1.00   0.13  0.01  0.00  0.17  0.00  0.70  0.00  0.00  0.00
  YS02001593YS02001596    1.00   0.13  0.00  0.00  0.19  0.01  0.00  0.67  0.02  0.00
  YS02001596YS02001600    1.00   0.13  0.00  0.00  0.24  0.01  0.00  0.62  0.03  0.00
  YS02001600YS02001601    1.00   0.13  0.01  0.00  0.86  0.00  0.00  0.00  0.57  0.00
  YS02001601YS02001602    1.00   0.13  0.01  0.00  0.87  0.00  0.00  0.00  0.00  0.00
  YS02001602YS02001605    1.00   0.13  0.00  0.00  0.87  0.00  0.00  0.00  0.00  0.00
  YS02001605YS02001607    1.00   0.14  0.00  0.00  0.86  0.00  0.00  0.00  0.00  0.00
  YS02001607YS02001610    1.00   0.13  0.01  0.00  0.86  0.00  0.00  0.00  0.01  0.00
  YS02001610YS02001613    1.00   0.13  0.00  0.00  0.87  0.00  0.00  0.00  0.00  0.00
  YS02001613YS02001616    1.00   0.13  0.00  0.00  0.87  0.00  0.00  0.00  0.00  0.00
  YS02001616YS02001619    1.00   0.13  0.00  0.00  0.87  0.00  0.00  0.00  0.00  0.00
  YS02001619YS02001622    1.00   0.13  0.00  0.00  0.87  0.00  0.00  0.00  0.27  0.00
  YS02001622YS02001625    1.00   0.13  0.00  0.00  0.87  0.00  0.00  0.00  0.03  0.00
  YS02001625YS02001629    1.00   0.13  0.04  0.00  0.21  0.00  0.63  0.00  0.00  0.00
  YS02001629YS02163301    1.00   0.15  0.01  0.00  0.85  0.00  0.00  0.00  0.00  0.00
  YS02001633YS02163601    1.00   0.00  0.01  0.00  0.99  0.00  0.00  0.00  0.14  0.00
  YS02001641YS02001644    1.00   0.00  0.01  0.00  0.99  0.00  0.00  0.00  0.00  0.00
  YS02001644YS02001647    1.00   0.00  0.16  0.00  0.84  0.00  0.00  0.00  0.00  0.00
  YS02001647YS02001649    1.00   0.00  0.16  0.00  0.55  0.29  0.00  0.00  0.55  0.00
  YS02001649YS02001757    1.00   0.00  0.00  0.00  0.69  0.31  0.00  0.00  0.46  0.00
  YS02001652YS02001649    1.00   0.00  0.00  0.00  0.97  0.02  0.00  0.00  0.71  0.00
  YS02001655YS02001652    1.00   0.00  0.00  0.00  0.23  0.01  0.00  0.77  0.05  0.00
  YS02001658YS02001655    1.00   0.00  0.14  0.00  0.69  0.17  0.00  0.00  0.66  0.00
  YS02001661YS02001658    1.00   0.14  0.00  0.00  0.52  0.34  0.00  0.00  0.71  0.00
  YS02001664YS02001661    1.00   0.13  0.00  0.00  0.73  0.15  0.00  0.00  0.84  0.00
  YS02001745YS02001748    1.00   0.00  0.00  0.00  0.13  0.01  0.00  0.86  0.08  0.00
  YS02001748YS02001751    1.00   0.00  0.00  0.00  0.85  0.15  0.00  0.00  0.77  0.00
  YS02001751YS02001754    1.00   0.00  0.00  0.00  0.20  0.00  0.00  0.80  0.02  0.00
  YS02001754YS02001757    1.00   0.00  0.00  0.00  1.00  0.00  0.00  0.00  0.79  0.00
  YS02001757CaochengTiaoxuchi    1.00   0.00  0.00  0.00  0.85  0.15  0.00  0.00  0.72  0.00
  YS02001759YS02001757    1.00   0.00  0.00  0.00  0.99  0.01  0.00  0.00  0.60  0.00
  YS02001762YS02001759    1.00   0.00  0.00  0.00  1.00  0.00  0.00  0.00  0.03  0.00
  YS02001765YS02001762    1.00   0.00  0.00  0.00  1.00  0.00  0.00  0.00  0.71  0.00
  YS02001767YS02001765    1.00   0.00  0.00  0.00  1.00  0.00  0.00  0.00  0.00  0.00
  YS02001770YS02001767    1.00   0.00  0.00  0.00  1.00  0.00  0.00  0.00  0.00  0.00
  YS02001774YS02001770    1.00   0.00  0.13  0.00  0.72  0.00  0.15  0.00  0.02  0.00
  YS02001779YS02001774    1.00   0.00  0.00  0.00  1.00  0.00  0.00  0.00  0.76  0.00
  YS02001783YS02001784    1.00   0.00  0.16  0.00  0.84  0.00  0.00  0.00  0.54  0.00
  YS02001784YS02001785    1.00   0.00  0.00  0.00  1.00  0.00  0.00  0.00  0.15  0.00
  YS02001786YS02001788    1.00   0.00  0.00  0.00  0.80  0.20  0.00  0.00  0.00  0.00
  YS02001788YS02001790    1.00   0.00  0.00  0.00  0.21  0.79  0.00  0.00  0.78  0.00
  YS02001790YS02001791    1.00   0.00  0.00  0.00  0.01  0.99  0.00  0.00  0.16  0.00
  YS02001791YS02001793    1.00   0.00  0.00  0.00  0.00  1.00  0.00  0.00  0.01  0.00
  YS02001793JiankangQianchi    1.00   0.00  0.00  0.00  0.61  0.38  0.00  0.00  0.93  0.00
  YS02001882YS02001884    1.00   0.15  0.00  0.00  0.85  0.00  0.00  0.00  0.00  0.00
  YS02001884YS02001887    1.00   0.06  0.05  0.00  0.89  0.00  0.00  0.00  0.00  0.00
  YS02001887YS02001890    1.00   0.00  0.00  0.00  0.97  0.00  0.03  0.00  0.00  0.00
  YS02001890YS02001895    1.00   0.00  0.15  0.00  0.85  0.00  0.00  0.00  0.00  0.00
  YS02001895YS02001898    1.00   0.15  0.00  0.00  0.83  0.00  0.01  0.00  0.00  0.00
  YS02001898YS02001901    1.00   0.16  0.00  0.00  0.84  0.00  0.00  0.00  0.00  0.00
  YS02001901YS02001904    1.00   0.16  0.00  0.00  0.84  0.00  0.00  0.00  0.00  0.00
  YS02001904YS02001907    1.00   0.00  0.15  0.00  0.84  0.00  0.00  0.00  0.00  0.00
  YS02001907YS02006553    1.00   0.00  0.02  0.00  0.98  0.00  0.00  0.00  0.00  0.00
  YS02001910YS02001907    1.00   0.00  0.00  0.00  0.97  0.00  0.00  0.03  0.12  0.00
  YS02001915YS02001910    1.00   0.00  0.00  0.00  0.97  0.03  0.00  0.00  0.13  0.00
  YS02001918YS02001915    1.00   0.00  0.01  0.00  0.98  0.02  0.00  0.00  0.70  0.00
  YS02001920YS02001918    1.00   0.00  0.01  0.00  0.99  0.00  0.00  0.00  0.00  0.00
  YS02001923YS02001920    1.00   0.00  0.00  0.00  1.00  0.00  0.00  0.00  0.89  0.00
  YS02001926YS02001923    1.00   0.00  0.07  0.00  0.09  0.00  0.83  0.00  0.00  0.00
  YS02001929YS02001926    1.00   0.00  0.13  0.00  0.87  0.00  0.00  0.00  0.79  0.00
  YS02006553YS02006556    1.00   0.01  0.00  0.00  0.99  0.00  0.00  0.00  0.03  0.00
  YS02006556YS02006558    1.00   0.00  0.00  0.00  1.00  0.00  0.00  0.00  0.00  0.00
  YS02006558YS02006561    1.00   0.16  0.00  0.00  0.09  0.75  0.00  0.00  0.17  0.00
  YS02006561YS02001783    1.00   0.16  0.00  0.00  0.13  0.71  0.00  0.00  0.65  0.00
  YS02163301YS02001633    1.00   0.00  0.14  0.00  0.86  0.00  0.00  0.00  0.00  0.00
  YS02163601YS02164001    1.00   0.00  0.08  0.00  0.92  0.00  0.00  0.00  0.00  0.00
  YS02164001YS02001641    1.00   0.01  0.08  0.00  0.92  0.00  0.00  0.00  0.05  0.00
  
  
  *************************
  Conduit Surcharge Summary
  *************************
  
  ----------------------------------------------------------------------------
                                                           Hours        Hours 
                         --------- Hours Full --------   Above Full   Capacity
  Conduit                Both Ends  Upstream  Dnstream   Normal Flow   Limited
  ----------------------------------------------------------------------------
  WS02003072WS02003073        0.01      0.01      0.01      1.96         0.01
  WS02004404WS02004405        0.01      0.01      0.01      2.85         0.01
  WS02004405WS02004406        0.01      0.01      0.01      1.32         0.01
  WS02006109WS02006110        0.59      0.59      2.29      0.92         0.01
  WS02006110WS02006113        0.01      0.01      2.28      0.01         0.01
  WS02006111WS02006112        0.01      0.01      2.34      0.01         0.01
  WS02006112WS02006115        0.01      0.01      1.51      0.01         0.01
  WS02006228WS02006109        2.23      2.29      2.23      2.55         2.23
  WS02006229WS02006228        2.22      2.24      2.22      2.45         2.20
  WS02006230WS02006229        2.36      2.40      2.36      3.19         2.36
  WS02006231WS02006230        0.67      0.67      1.57      2.93         0.01
  WS02006232WS02006231        1.32      1.32      2.32      1.39         0.01
  WS02006234WS02006232        2.01      2.02      2.32      1.33         1.20
  WS02006235WS02006234        1.74      1.80      1.99      2.85         0.13
  WS02006238WS02006235        2.06      2.06      2.33      0.01         0.07
  WS02006239WS02006238        2.18      2.32      2.19      2.40         1.81
  WS02006240WS02006239        2.15      2.27      2.15      2.39         1.68
  WS02006242WS02006240        2.25      2.25      2.38      2.47         0.02
  WS02006243WS02006242        2.27      2.27      2.34      0.01         0.32
  WS02006245WS02006243        2.25      2.26      2.25      1.87         1.28
  WS02006247WS02006245        2.25      2.28      2.25      2.52         2.10
  WS02006248WS02006247        2.25      2.25      2.27      0.01         0.35
  WS02006249WS02006248        2.24      2.24      2.26      2.52         0.01
  WS02006251WS02006249        2.25      2.26      2.26      2.49         2.03
  WS02006252WS02006251        2.53      2.53      2.53      2.53         0.01
  WS02006256WS02006235        2.66      2.89      5.43      1.86         0.02
  YS02001580YS02001583        0.97      0.97      1.01      0.01         0.01
  YS02001583YS02001586        0.98      0.98      1.11      0.01         0.01
  YS02001586YS02001590        1.12      1.12      1.20      0.01         0.01
  YS02001590YS02001593        1.20      1.20      1.22      1.31         0.01
  YS02001593YS02001596        1.21      1.21      1.32      0.01         0.01
  YS02001596YS02001600        1.37      1.37      1.51      0.01         0.01
  YS02001600YS02001601        1.59      1.59      1.78      0.01         0.01
  YS02001601YS02001602        1.70      1.70      1.80      1.55         0.01
  YS02001602YS02001605        1.67      1.67      1.70      2.44         0.01
  YS02001605YS02001607        1.64      1.67      1.64      1.75         1.64
  YS02001607YS02001610        1.15      1.15      1.18      0.01         0.01
  YS02001610YS02001613        1.14      1.14      1.18      0.01         0.01
  YS02001613YS02001616        1.09      1.09      1.14      0.01         0.01
  YS02001616YS02001619        1.08      1.08      1.09      0.17         0.10
  YS02001619YS02001622        1.07      1.08      1.07      1.24         1.04
  YS02001622YS02001625        1.07      1.07      1.28      0.01         0.01
  YS02001625YS02001629        1.00      1.00      1.28      0.01         0.01
  YS02001629YS02163301        1.27      1.27      1.28      0.35         0.34
  YS02001633YS02163601        1.30      1.30      1.33      0.59         0.58
  YS02001641YS02001644        1.18      1.22      1.18      1.82         1.17
  YS02001644YS02001647        0.92      0.92      1.18      0.04         0.01
  YS02001647YS02001649        0.92      0.92      1.07      0.01         0.01
  YS02001649YS02001757        1.07      1.07      1.15      0.44         0.41
  YS02001652YS02001649        0.83      0.83      1.07      0.01         0.01
  YS02001655YS02001652        0.54      0.54      0.80      0.01         0.01
  YS02001658YS02001655        0.33      0.33      0.54      0.01         0.01
  YS02001661YS02001658        0.16      0.16      0.33      0.01         0.01
  YS02001664YS02001661        0.01      0.01      0.20      0.01         0.01
  YS02001745YS02001748        0.01      0.01      0.21      0.01         0.01
  YS02001748YS02001751        0.28      0.28      0.39      0.01         0.01
  YS02001751YS02001754        0.39      0.39      0.60      0.01         0.01
  YS02001754YS02001757        0.68      0.68      1.15      0.01         0.01
  YS02001757CaochengTiaoxuchi        0.83      1.15      1.37      0.65         0.31
  YS02001759YS02001757        1.03      1.03      1.15      0.18         0.18
  YS02001762YS02001759        0.98      0.98      1.03      0.01         0.04
  YS02001765YS02001762        0.90      0.90      0.98      0.01         0.01
  YS02001767YS02001765        0.85      0.85      0.90      0.03         0.06
  YS02001770YS02001767        0.85      0.85      0.85      0.81         0.67
  YS02001774YS02001770        0.82      0.82      0.95      0.01         0.01
  YS02001779YS02001774        0.61      0.61      0.95      0.01         0.01
  YS02001783YS02001784        0.78      0.81      0.78      0.97         0.78
  YS02001784YS02001785        0.66      0.78      0.66      1.29         0.66
  YS02001786YS02001788        0.01      0.66      0.01      1.12         0.01
  YS02001790YS02001791        0.01      0.01      0.01      0.77         0.01
  YS02001882YS02001884        0.74      0.74      0.75      0.01         0.01
  YS02001884YS02001887        0.78      0.78      0.80      0.01         0.01
  YS02001887YS02001890        0.81      0.81      0.82      0.25         0.01
  YS02001890YS02001895        0.73      0.73      0.85      0.01         0.01
  YS02001895YS02001898        0.72      0.72      0.73      0.01         0.01
  YS02001898YS02001901        0.73      0.73      0.78      0.01         0.01
  YS02001901YS02001904        0.77      0.77      0.78      0.01         0.01
  YS02001904YS02001907        0.77      0.77      1.08      0.01         0.01
  YS02001907YS02006553        1.31      1.31      1.41      0.01         0.01
  YS02001910YS02001907        0.85      0.85      1.05      0.14         0.15
  YS02001915YS02001910        0.74      0.74      0.85      0.01         0.02
  YS02001918YS02001915        0.64      0.64      0.74      0.01         0.01
  YS02001920YS02001918        0.64      0.64      0.66      0.01         0.01
  YS02001923YS02001920        0.59      0.59      0.66      0.01         0.01
  YS02001926YS02001923        0.27      0.27      0.30      0.02         0.01
  YS02001929YS02001926        0.16      0.16      0.30      0.01         0.01
  YS02006553YS02006556        0.94      0.94      1.08      0.01         0.01
  YS02006556YS02006558        1.00      1.00      1.11      0.01         0.01
  YS02006558YS02006561        0.68      0.93      0.68      1.24         0.68
  YS02006561YS02001783        0.60      0.60      0.81      0.01         0.01
  YS02163301YS02001633        1.28      1.28      1.32      0.01         0.01
  YS02163601YS02164001        1.23      1.23      1.33      0.05         0.01
  YS02164001YS02001641        1.22      1.23      1.22      1.01         0.91
  
  
  ***************
  Pumping Summary
  ***************
  
  ---------------------------------------------------------------------------------------------------------
                                                  Min       Avg       Max     Total     Power    % Time Off
                        Percent   Number of      Flow      Flow      Flow    Volume     Usage    Pump Curve
  Pump                 Utilized   Start-Ups       LPS       LPS       LPS  10^6 ltr     Kw-hr    Low   High
  ---------------------------------------------------------------------------------------------------------
  CC-R1                   31.57           2      0.00    683.00    683.00     6.146    108.54    0.0   45.3
  CC-R2                   31.57           2      0.00    683.00    683.00     6.146    108.54    0.0   45.3
  CC-S1                   31.97           2      0.00    200.00    200.00     1.822     11.92    0.0    8.7
  CC-S2                   31.97           2      0.00    200.00    200.00     1.822     11.92    0.0    8.7
  JK-R1                    6.14          79      0.00   1000.00   1000.00     1.749      5.46    0.0    0.0
  JK-R2                    6.14          79      0.00   1000.00   1000.00     1.749      5.46    0.0    0.0
  JK-S                    23.00         110      0.00    300.00    300.00     1.966     43.64    0.0    0.0
  

  Analysis begun on:  Tue Apr 22 10:18:16 2025
  Analysis ended on:  Tue Apr 22 10:18:17 2025
  Total elapsed time: 00:00:01