
  EPA STORM WATER MANAGEMENT MODEL - VERSION 5.2 (Build 5.2.4)
  PYSWMM TOOLKIT API - VERSION v1.0 (2023-11-27)
  ------------------------------------------------------------

  WARNING 04: minimum elevation drop used for Conduit WS02004404WS02004405
  WARNING 03: negative offset ignored for Link YS02001904YS02001907
  
  ****************
  Analysis Options
  ****************
  Flow Units ............... LPS
  Process Models:
    Rainfall/Runoff ........ YES
    RDII ................... NO
    Snowmelt ............... NO
    Groundwater ............ NO
    Flow Routing ........... YES
    Ponding Allowed ........ NO
    Water Quality .......... NO
  Infiltration Method ...... HORTON
  Flow Routing Method ...... DYNWAVE
  Surcharge Method ......... EXTRAN
  Starting Date ............ 08/28/2015 08:00:00
  Ending Date .............. 08/28/2015 16:00:00
  Antecedent Dry Days ...... 8.0
  Report Time Step ......... 00:01:00
  Wet Time Step ............ 00:01:00
  Dry Time Step ............ 00:01:00
  Routing Time Step ........ 30.00 sec
  Variable Time Step ....... YES
  Maximum Trials ........... 8
  Number of Threads ........ 4
  Head Tolerance ........... 0.001500 m
  
  
  **************************        Volume         Depth
  Runoff Quantity Continuity     hectare-m            mm
  **************************     ---------       -------
  Total Precipitation ......         3.195        96.326
  Evaporation Loss .........         0.000         0.000
  Infiltration Loss ........         0.105         3.171
  Surface Runoff ...........         3.058        92.178
  Final Storage ............         0.033         0.999
  Continuity Error (%) .....        -0.022
  
  
  **************************        Volume        Volume
  Flow Routing Continuity        hectare-m      10^6 ltr
  **************************     ---------     ---------
  Dry Weather Inflow .......         0.025         0.248
  Wet Weather Inflow .......         3.057        30.572
  Groundwater Inflow .......         0.000         0.000
  RDII Inflow ..............         0.000         0.000
  External Inflow ..........         0.083         0.825
  External Outflow .........         2.064        20.638
  Flooding Loss ............         1.256        12.558
  Evaporation Loss .........         0.000         0.000
  Exfiltration Loss ........         0.000         0.000
  Initial Stored Volume ....         0.243         2.431
  Final Stored Volume ......         0.099         0.988
  Continuity Error (%) .....        -0.316
  
  
  *************************
  Highest Continuity Errors
  *************************
  Node YS02001884 (5.31%)
  Node WS02006256 (-3.68%)
  Node YS02001583 (-2.48%)
  
  
  ***************************
  Time-Step Critical Elements
  ***************************
  Link WS02006238WS02006235 (23.97%)
  Link WS02004404WS02004405 (22.63%)
  Link WS02003066WSF200 (11.14%)
  Link YS02001791YS02001793 (9.39%)
  Link YS02001793JiankangQianchi (5.88%)
  
  
  ********************************
  Highest Flow Instability Indexes
  ********************************
  Link WS02006252WS02006251 (39)
  Link WS02006113WS02006111 (37)
  Link WS02006238WS02006235 (24)
  Link YS02001602YS02001605 (24)
  Link YS02001607YS02001610 (22)
  
  
  *********************************
  Most Frequent Nonconverging Nodes
  *********************************
  Node CC-1 (39.46%)
  Node CC-2 (39.46%)
  Node JK-1 (39.46%)
  Node JK-2 (39.46%)
  Node WSC (39.46%)
  
  
  *************************
  Routing Time Step Summary
  *************************
  Minimum Time Step           :     0.01 sec
  Average Time Step           :     2.92 sec
  Maximum Time Step           :     6.43 sec
  % of Time in Steady State   :     0.00
  Average Iterations per Step :     4.72
  % of Steps Not Converging   :    39.46
  Time Step Frequencies       :
     30.000 - 13.228 sec      :     0.00 %
     13.228 -  5.833 sec      :    15.73 %
      5.833 -  2.572 sec      :    31.30 %
      2.572 -  1.134 sec      :    35.94 %
      1.134 -  0.500 sec      :    17.03 %
  
  
  ***************************
  Subcatchment Runoff Summary
  ***************************
  
  ------------------------------------------------------------------------------------------------------------------------------
                            Total      Total      Total      Total     Imperv       Perv      Total       Total     Peak  Runoff
                           Precip      Runon       Evap      Infil     Runoff     Runoff     Runoff      Runoff   Runoff   Coeff
  Subcatchment                 mm         mm         mm         mm         mm         mm         mm    10^6 ltr      LPS
  ------------------------------------------------------------------------------------------------------------------------------
  sub60                     96.33       0.00       0.00       1.88      83.57       9.68      93.25        1.23   871.34   0.968
  sub61                     96.33       0.00       0.00       2.74      78.83      13.64      92.47        1.70  1213.14   0.960
  sub62                     96.33       0.00       0.00       1.26      87.34       6.45      93.79        2.57  1705.27   0.974
  sub63                     96.33       0.00       0.00       5.07      67.43      22.87      90.30        2.05  1391.47   0.937
  sub64                     96.33       0.00       0.00       2.56      80.67      11.89      92.57        2.22  1409.08   0.961
  sub65                     96.33       0.00       0.00       2.21      82.55      10.31      92.86        2.56  1582.97   0.964
  sub66                     96.33       0.00       0.00       6.32      67.31      21.61      88.93        4.15  2168.21   0.923
  sub67                     96.33       0.00       0.00       1.20      87.39       6.51      93.89        1.75  1297.65   0.975
  sub68                     96.33       0.00       0.00       2.27      81.66      11.22      92.88        2.56  1753.10   0.964
  sub69                     96.33       0.00       0.00       2.05      81.77      12.40      94.17        3.49  2105.06   0.978
  sub70                     96.33       0.00       0.00       6.92      63.41      25.84      89.24        2.58  1217.23   0.926
  sub71                     96.33       0.00       0.00       1.29      87.30       6.42      93.71        2.45  1521.70   0.973
  sub72                     96.33       0.00       0.00       1.15      88.18       5.60      93.77        1.29   747.92   0.974
  
  
  ******************
  Node Depth Summary
  ******************
  
  ---------------------------------------------------------------------------------
                                 Average  Maximum  Maximum  Time of Max    Reported
                                   Depth    Depth      HGL   Occurrence   Max Depth
  Node                 Type       Meters   Meters   Meters  days hr:min      Meters
  ---------------------------------------------------------------------------------
  WS02003060           JUNCTION     0.24     0.38     5.31     0  03:15        0.38
  WS02003066           JUNCTION     0.19     0.30     5.85     0  03:15        0.30
  WS02003067           JUNCTION     0.49     0.70     6.02     0  03:15        0.70
  WS02003069           JUNCTION     0.26     0.43     5.01     0  03:16        0.43
  WS02003072           JUNCTION     0.32     0.50     4.87     0  03:17        0.50
  WS02003073           JUNCTION     0.18     0.30     4.36     0  03:17        0.30
  WS02004401           JUNCTION     0.60     0.85     6.85     0  03:13        0.85
  WS02004402           JUNCTION     0.63     0.88     6.84     0  03:13        0.88
  WS02004403           JUNCTION     0.65     0.89     6.82     0  03:14        0.89
  WS02004404           JUNCTION     0.72     0.96     6.81     0  03:14        0.96
  WS02004405           JUNCTION     0.72     0.96     6.81     0  03:13        0.95
  WS02004406           JUNCTION     0.73     0.96     6.79     0  03:14        0.96
  WS02004407           JUNCTION     0.18     0.30     6.61     0  03:13        0.30
  WS02004409           JUNCTION     0.40     0.67     6.44     0  03:14        0.67
  WS02004410           JUNCTION     0.42     0.68     6.40     0  03:15        0.68
  WS02004411           JUNCTION     0.44     0.69     6.37     0  03:15        0.69
  WS02004412           JUNCTION     0.46     0.70     6.34     0  03:15        0.70
  WS02004413           JUNCTION     0.61     0.86     6.33     0  03:14        0.86
  WS02006109           JUNCTION     0.68     1.24     7.86     0  03:19        1.11
  WS02006110           JUNCTION     0.68     1.41     7.99     0  02:49        1.06
  WS02006111           JUNCTION     0.18     0.29     7.00     0  03:19        0.29
  WS02006112           JUNCTION     0.76     1.22     7.11     0  03:19        1.06
  WS02006113           JUNCTION     0.28     0.47     7.36     0  03:19        0.46
  WS02006115           JUNCTION     0.49     0.75     6.89     0  03:12        0.75
  WS02006116           JUNCTION     0.57     0.83     6.87     0  03:13        0.83
  WS02006228           JUNCTION     0.69     1.59     8.24     0  03:19        1.59
  WS02006229           JUNCTION     0.66     1.67     8.37     0  03:19        1.67
  WS02006230           JUNCTION     0.68     2.03     8.77     0  02:44        1.31
  WS02006231           JUNCTION     0.48     2.07     9.19     0  02:17        1.65
  WS02006232           JUNCTION     0.61     2.02     9.05     0  02:17        2.00
  WS02006234           JUNCTION     0.56     1.96     9.12     0  02:01        1.96
  WS02006235           JUNCTION     0.60     2.00     9.16     0  02:01        2.00
  WS02006238           JUNCTION     0.63     2.15     9.29     0  02:13        2.15
  WS02006239           JUNCTION     0.60     2.03     9.24     0  02:13        2.03
  WS02006240           JUNCTION     0.57     2.10     9.39     0  02:13        2.10
  WS02006242           JUNCTION     0.64     1.55     8.82     0  01:47        1.55
  WS02006243           JUNCTION     0.57     1.48     8.90     0  01:54        1.48
  WS02006245           JUNCTION     0.57     1.56     9.04     0  02:13        1.56
  WS02006247           JUNCTION     0.59     1.47     8.97     0  02:13        1.47
  WS02006248           JUNCTION     0.56     1.10     8.69     0  01:43        1.10
  WS02006249           JUNCTION     0.58     1.09     8.69     0  01:41        1.09
  WS02006251           JUNCTION     0.59     1.41     9.08     0  03:21        1.41
  WS02006252           JUNCTION     0.38     1.50     9.74     0  00:00        0.98
  WS02006256           JUNCTION     1.20     2.35     9.28     0  00:00        2.35
  WSF200               JUNCTION     0.17     0.29     5.52     0  03:15        0.29
  YS02001580           JUNCTION     0.19     1.05     9.59     0  01:55        1.05
  YS02001583           JUNCTION     0.22     1.06     9.55     0  01:55        0.84
  YS02001586           JUNCTION     0.35     1.13     9.30     0  01:54        1.13
  YS02001590           JUNCTION     0.47     1.40     9.26     0  01:57        1.40
  YS02001593           JUNCTION     0.40     1.40     9.26     0  01:57        1.40
  YS02001596           JUNCTION     0.55     1.74     9.16     0  01:57        1.74
  YS02001600           JUNCTION     0.65     1.87     9.00     0  01:54        1.87
  YS02001601           JUNCTION     0.83     2.06     8.90     0  01:54        2.06
  YS02001602           JUNCTION     0.72     1.87     8.77     0  01:59        1.87
  YS02001605           JUNCTION     0.67     1.78     8.68     0  02:13        1.78
  YS02001607           JUNCTION     0.62     1.65     8.50     0  02:13        1.65
  YS02001610           JUNCTION     0.65     1.68     8.48     0  02:00        1.68
  YS02001613           JUNCTION     0.62     1.70     8.54     0  02:05        1.70
  YS02001616           JUNCTION     0.55     1.61     8.52     0  02:09        1.61
  YS02001619           JUNCTION     0.53     1.61     8.54     0  02:05        1.61
  YS02001622           JUNCTION     0.52     1.58     8.49     0  02:15        1.58
  YS02001625           JUNCTION     0.75     1.78     8.38     0  02:01        1.78
  YS02001629           JUNCTION     0.66     1.85     8.40     0  02:02        1.85
  YS02001633           JUNCTION     0.73     2.08     8.53     0  02:05        2.08
  YS02001641           JUNCTION     0.68     2.06     8.49     0  02:13        2.06
  YS02001644           JUNCTION     0.67     1.92     8.35     0  02:04        1.92
  YS02001647           JUNCTION     0.45     1.79     8.40     0  02:13        1.79
  YS02001649           JUNCTION     0.51     2.05     8.44     0  02:13        2.05
  YS02001652           JUNCTION     0.39     2.00     8.59     0  02:13        2.00
  YS02001655           JUNCTION     0.29     1.85     8.70     0  02:13        1.85
  YS02001658           JUNCTION     0.21     1.65     8.79     0  02:13        1.65
  YS02001661           JUNCTION     0.21     1.45     8.86     0  02:13        1.45
  YS02001664           JUNCTION     0.10     0.96     8.88     0  02:12        0.94
  YS02001745           JUNCTION     0.11     0.97     8.49     0  02:12        0.97
  YS02001748           JUNCTION     0.19     1.40     8.48     0  02:06        1.38
  YS02001751           JUNCTION     0.24     1.58     8.46     0  02:04        1.56
  YS02001754           JUNCTION     0.33     1.82     8.43     0  02:13        1.82
  YS02001757           JUNCTION     0.51     2.16     8.42     0  02:13        2.16
  YS02001759           JUNCTION     0.46     2.21     8.57     0  02:13        2.21
  YS02001762           JUNCTION     0.45     2.15     8.55     0  02:05        2.15
  YS02001765           JUNCTION     0.42     2.10     8.55     0  02:05        2.10
  YS02001767           JUNCTION     0.42     2.03     8.52     0  02:05        2.03
  YS02001770           JUNCTION     0.43     1.95     8.44     0  02:02        1.95
  YS02001774           JUNCTION     0.49     2.05     8.47     0  02:02        2.05
  YS02001779           JUNCTION     0.32     1.68     8.37     0  02:02        1.68
  YS02001783           JUNCTION     0.38     1.32     7.46     0  02:13        1.26
  YS02001784           JUNCTION     0.38     1.18     7.25     0  02:13        1.15
  YS02001786           JUNCTION     0.31     0.91     6.94     0  02:13        0.88
  YS02001788           JUNCTION     0.23     0.63     6.60     0  02:13        0.62
  YS02001790           JUNCTION     0.27     0.73     6.37     0  02:10        0.72
  YS02001791           JUNCTION     0.16     0.45     5.92     0  02:10        0.43
  YS02001793           JUNCTION     0.08     0.25     5.08     0  02:10        0.23
  YS02001882           JUNCTION     0.47     1.83     8.54     0  02:13        1.83
  YS02001884           JUNCTION     0.55     1.93     8.55     0  02:13        1.93
  YS02001887           JUNCTION     0.62     2.00     8.54     0  02:13        2.00
  YS02001890           JUNCTION     0.65     1.81     8.32     0  02:00        1.81
  YS02001895           JUNCTION     0.43     1.58     8.33     0  02:05        1.58
  YS02001898           JUNCTION     0.44     1.58     8.31     0  02:13        1.58
  YS02001901           JUNCTION     0.55     1.72     8.33     0  02:05        1.72
  YS02001904           JUNCTION     0.53     1.66     8.29     0  02:05        1.66
  YS02001907           JUNCTION     0.83     1.96     8.25     0  02:01        1.96
  YS02001910           JUNCTION     0.65     2.01     8.52     0  02:13        2.01
  YS02001915           JUNCTION     0.49     2.00     8.72     0  02:11        2.00
  YS02001918           JUNCTION     0.31     1.81     8.88     0  02:02        1.74
  YS02001920           JUNCTION     0.39     1.97     8.98     0  02:02        1.84
  YS02001923           JUNCTION     0.25     1.79     9.05     0  02:02        1.64
  YS02001926           JUNCTION     0.26     1.63     9.08     0  02:02        1.46
  YS02001929           JUNCTION     0.17     1.65     9.34     0  02:02        1.23
  YS02006553           JUNCTION     0.83     2.11     8.39     0  02:13        2.11
  YS02006556           JUNCTION     0.80     2.22     8.53     0  02:13        2.22
  YS02006558           JUNCTION     0.84     2.30     8.57     0  02:13        2.30
  YS02006561           JUNCTION     0.24     1.01     7.67     0  02:13        0.93
  YS02163301           JUNCTION     0.68     1.97     8.49     0  02:05        1.97
  YS02163601           JUNCTION     0.75     2.08     8.48     0  02:04        2.08
  YS02164001           JUNCTION     0.68     2.08     8.54     0  02:13        2.08
  CC-1                 OUTFALL      0.00     0.00     0.00     0  00:00        0.00
  CC-2                 OUTFALL      0.00     0.00     0.00     0  00:00        0.00
  JK-1                 OUTFALL      0.00     0.00     0.00     0  00:00        0.00
  JK-2                 OUTFALL      0.00     0.00     0.00     0  00:00        0.00
  WSC                  OUTFALL      0.18     0.30     0.97     0  03:18        0.30
  CC-storage           STORAGE      0.52     1.38     6.88     0  02:48        1.38
  JK-storage           STORAGE      0.20     2.99     3.79     0  00:00        0.68
  
  
  *******************
  Node Inflow Summary
  *******************
  
  -------------------------------------------------------------------------------------------------
                                  Maximum  Maximum                  Lateral       Total        Flow
                                  Lateral    Total  Time of Max      Inflow      Inflow     Balance
                                   Inflow   Inflow   Occurrence      Volume      Volume       Error
  Node                 Type           LPS      LPS  days hr:min    10^6 ltr    10^6 ltr     Percent
  -------------------------------------------------------------------------------------------------
  WS02003060           JUNCTION     16.53   551.82     0  03:15       0.471        5.28       0.040
  WS02003066           JUNCTION      0.00   535.02     0  03:15           0        4.81       0.031
  WS02003067           JUNCTION      0.00   534.92     0  03:15           0        4.81       0.085
  WS02003069           JUNCTION      0.32   552.02     0  03:16     0.00912        5.29       0.074
  WS02003072           JUNCTION      0.00   551.81     0  03:16           0        5.28       0.134
  WS02003073           JUNCTION      1.82   553.53     0  03:17      0.0519        5.33       0.102
  WS02004401           JUNCTION      0.00   542.22     0  03:20           0        4.91       0.209
  WS02004402           JUNCTION      0.00   542.52     0  03:20           0         4.9       0.213
  WS02004403           JUNCTION      0.00   540.81     0  03:20           0        4.89       0.208
  WS02004404           JUNCTION      0.16   536.35     0  03:13     0.00462        4.89       0.181
  WS02004405           JUNCTION      0.04   536.49     0  03:14     0.00109        4.88       0.250
  WS02004406           JUNCTION      0.00   537.82     0  03:21           0        4.87       0.431
  WS02004407           JUNCTION      0.00   536.15     0  03:13           0        4.85       0.023
  WS02004409           JUNCTION      0.00   536.02     0  03:13           0        4.85       0.055
  WS02004410           JUNCTION      0.00   535.64     0  03:13           0        4.84       0.092
  WS02004411           JUNCTION      0.00   535.35     0  03:14           0        4.84       0.116
  WS02004412           JUNCTION      0.00   535.18     0  03:14           0        4.83       0.153
  WS02004413           JUNCTION      0.00   535.15     0  03:14           0        4.83       0.284
  WS02006109           JUNCTION      1.23   594.91     0  03:19      0.0351        4.96       0.213
  WS02006110           JUNCTION      0.00   598.22     0  03:19           0        4.95       0.120
  WS02006111           JUNCTION      0.00   583.08     0  03:19           0        4.94       0.010
  WS02006112           JUNCTION      0.00   554.46     0  03:19           0        4.94       0.421
  WS02006113           JUNCTION      0.00   608.45     0  03:19           0        4.95       0.048
  WS02006115           JUNCTION      0.00   579.44     0  03:19           0        4.92       0.144
  WS02006116           JUNCTION      0.00   548.12     0  03:20           0        4.92       0.025
  WS02006228           JUNCTION      0.00   591.26     0  03:19           0        4.93       0.086
  WS02006229           JUNCTION      0.00   586.10     0  03:19           0        4.94       0.120
  WS02006230           JUNCTION     10.28   600.17     0  03:40       0.293        4.94       0.006
  WS02006231           JUNCTION      0.00   596.47     0  03:40           0        4.64      -0.138
  WS02006232           JUNCTION      0.00   593.47     0  03:40           0        4.66       0.353
  WS02006234           JUNCTION      0.00   582.45     0  01:39           0        4.63      -0.533
  WS02006235           JUNCTION      0.00   699.49     0  01:39           0        4.77       0.370
  WS02006238           JUNCTION      0.00   424.70     0  03:15           0        3.54      -0.045
  WS02006239           JUNCTION      0.00   425.48     0  03:45           0        3.46      -0.022
  WS02006240           JUNCTION      0.00   423.52     0  03:45           0         3.4       0.026
  WS02006242           JUNCTION      0.00   423.27     0  03:45           0        3.37      -0.002
  WS02006243           JUNCTION      0.00   423.61     0  03:45           0        3.35      -0.123
  WS02006245           JUNCTION      0.00   423.23     0  03:44           0        3.35       0.174
  WS02006247           JUNCTION      0.00   423.73     0  03:44           0        3.35      -0.011
  WS02006248           JUNCTION      0.00   424.63     0  03:44           0        3.36       0.092
  WS02006249           JUNCTION      0.00   469.02     0  01:36           0        3.63       0.223
  WS02006251           JUNCTION      0.08   409.91     0  03:21     0.00219        3.63      -0.043
  WS02006252           JUNCTION      0.00   400.00     0  00:00           0        3.62       0.009
  WS02006256           JUNCTION      0.00   305.96     0  02:14           0        1.93      -3.548
  WSF200               JUNCTION      0.00   535.07     0  03:15           0        4.81       0.008
  YS02001580           JUNCTION      0.00    75.35     0  01:54           0     0.00409      -2.031
  YS02001583           JUNCTION      0.00   104.57     0  01:54           0      0.0159      -2.417
  YS02001586           JUNCTION   1217.23  1217.23     0  02:15        2.58        2.59       0.038
  YS02001590           JUNCTION      0.00   318.16     0  02:24           0        1.66      -0.036
  YS02001593           JUNCTION      0.00   318.09     0  02:05           0        1.66       0.009
  YS02001596           JUNCTION      0.00   317.99     0  02:30           0        1.66       0.001
  YS02001600           JUNCTION      0.00   318.50     0  02:05           0        1.66       0.018
  YS02001601           JUNCTION   2105.06  2422.56     0  02:14        3.49        5.15       0.018
  YS02001602           JUNCTION      0.00   493.00     0  02:49           0        2.73       0.017
  YS02001605           JUNCTION      0.00   493.02     0  02:49           0        2.59       0.020
  YS02001607           JUNCTION      0.00   492.97     0  02:49           0        2.58       0.080
  YS02001610           JUNCTION      0.00   952.59     0  02:18           0         3.2       0.078
  YS02001613           JUNCTION      0.00   616.86     0  02:18           0        2.54       0.063
  YS02001616           JUNCTION      0.00   616.41     0  02:17           0        2.54       0.018
  YS02001619           JUNCTION   2168.21  2168.21     0  02:14        4.15        6.07       0.003
  YS02001622           JUNCTION      0.00  1053.90     0  02:19           0        5.28       0.001
  YS02001625           JUNCTION      0.00  1505.18     0  02:18           0        5.68       0.159
  YS02001629           JUNCTION      0.00   933.65     0  02:00           0        4.42       0.024
  YS02001633           JUNCTION   1583.17  1583.17     0  02:14        2.56        6.42       0.056
  YS02001641           JUNCTION      0.00  1365.37     0  02:00           0        5.86       0.050
  YS02001644           JUNCTION   1409.12  2311.23     0  02:13        2.22        8.09       0.042
  YS02001647           JUNCTION      0.00  1755.06     0  02:00           0           7       0.007
  YS02001649           JUNCTION      0.00  2026.07     0  02:01           0        9.04       0.007
  YS02001652           JUNCTION      0.00  1401.99     0  02:13           0        2.05      -0.063
  YS02001655           JUNCTION      0.15  1402.45     0  02:13     0.00439        2.05      -0.009
  YS02001658           JUNCTION      0.00  1402.06     0  02:13           0        2.05       0.003
  YS02001661           JUNCTION      0.00  1401.67     0  02:13           0        2.05       0.010
  YS02001664           JUNCTION   1391.47  1391.47     0  02:13        2.05        2.05      -0.007
  YS02001745           JUNCTION    871.35   871.35     0  02:13        1.23        1.23       0.088
  YS02001748           JUNCTION      0.04   882.59     0  02:13     0.00128        1.23      -0.118
  YS02001751           JUNCTION      0.01   882.91     0  02:13    0.000313        1.23       0.017
  YS02001754           JUNCTION      0.26   882.22     0  02:13     0.00741        1.24      -0.079
  YS02001757           JUNCTION      0.00  3662.62     0  02:12           0          14       0.045
  YS02001759           JUNCTION   1213.18  1552.45     0  02:13         1.7        3.71      -0.007
  YS02001762           JUNCTION      0.00   821.35     0  02:21           0        2.01      -0.002
  YS02001765           JUNCTION      0.00   821.06     0  02:21           0        2.01       0.004
  YS02001767           JUNCTION      0.54   820.94     0  02:21      0.0152        2.01       0.002
  YS02001770           JUNCTION   1705.43  1705.43     0  02:13        2.57        2.62      -0.012
  YS02001774           JUNCTION      0.00   851.88     0  02:15           0       0.539       0.235
  YS02001779           JUNCTION      0.01   851.44     0  02:15    0.000142       0.495      -0.061
  YS02001783           JUNCTION      0.00  1183.83     0  02:13           0        5.07       0.005
  YS02001784           JUNCTION      1.06  1185.18     0  02:13      0.0302         5.1       0.010
  YS02001786           JUNCTION      0.06  1186.07     0  02:13      0.0016         5.1       0.015
  YS02001788           JUNCTION      0.07  1187.69     0  02:13     0.00202         5.1       0.006
  YS02001790           JUNCTION      0.15  1189.38     0  02:13     0.00442         5.1       0.011
  YS02001791           JUNCTION      0.00  1296.27     0  02:10           0         5.1      -0.019
  YS02001793           JUNCTION      0.00  1265.72     0  02:14           0         5.1      -0.015
  YS02001882           JUNCTION      0.00    26.36     0  01:58           0      0.0129       4.929
  YS02001884           JUNCTION      0.00    37.45     0  01:57           0       0.049       5.603
  YS02001887           JUNCTION   1298.10  1309.46     0  02:13        1.76        1.79       0.248
  YS02001890           JUNCTION      0.00  1311.65     0  02:13           0        1.75       0.299
  YS02001895           JUNCTION      0.00   518.57     0  02:17           0        1.42       0.131
  YS02001898           JUNCTION      0.00   517.91     0  02:17           0        1.42       0.015
  YS02001901           JUNCTION      0.00   517.43     0  02:15           0        1.42       0.237
  YS02001904           JUNCTION      0.00   517.03     0  02:14           0        1.42       0.206
  YS02001907           JUNCTION      0.00  3113.81     0  02:13           0        5.35       0.342
  YS02001910           JUNCTION      0.00  1993.16     0  02:15           0        3.77       0.195
  YS02001915           JUNCTION   1521.72  2271.72     0  02:14        2.45        3.85       0.041
  YS02001918           JUNCTION      0.00   751.47     0  02:14           0        1.41       0.013
  YS02001920           JUNCTION      2.87   751.54     0  02:14      0.0818         1.4       0.078
  YS02001923           JUNCTION      0.04   748.08     0  02:14     0.00107        1.31      -0.015
  YS02001926           JUNCTION      0.05   748.29     0  02:14     0.00149        1.29       0.030
  YS02001929           JUNCTION    747.92   747.92     0  02:14        1.29        1.29      -0.038
  YS02006553           JUNCTION      0.00   801.74     0  02:34           0        2.86       0.417
  YS02006556           JUNCTION      0.00   801.06     0  02:34           0        2.87       0.284
  YS02006558           JUNCTION   1753.98  1753.98     0  02:13        2.58        5.26       0.065
  YS02006561           JUNCTION      0.00  1182.08     0  02:13           0        5.07      -0.001
  YS02163301           JUNCTION      0.00   934.01     0  02:00           0        4.42       0.038
  YS02163601           JUNCTION      0.11  1365.55     0  02:01     0.00313        5.85       0.087
  YS02164001           JUNCTION      0.00  1365.36     0  02:01           0        5.85       0.044
  CC-1                 OUTFALL       0.00   683.00     0  00:00           0        5.99       0.000
  CC-2                 OUTFALL       0.00   683.00     0  00:00           0        5.99       0.000
  JK-1                 OUTFALL       0.00  1000.00     0  00:00           0        1.67       0.000
  JK-2                 OUTFALL       0.00  1000.00     0  00:00           0        1.67       0.000
  WSC                  OUTFALL       0.00   553.33     0  03:18           0        5.32       0.000
  CC-storage           STORAGE       0.00  3662.00     0  02:12           0        16.2      -0.288
  JK-storage           STORAGE       0.00  1392.24     0  02:10           0        5.26      -0.360
  
  
  **********************
  Node Surcharge Summary
  **********************
  
  Surcharging occurs when water rises above the top of the highest conduit.
  ---------------------------------------------------------------------
                                               Max. Height   Min. Depth
                                   Hours       Above Crown    Below Rim
  Node                 Type      Surcharged         Meters       Meters
  ---------------------------------------------------------------------
  WS02006109           JUNCTION        2.22          0.421        1.399
  WS02006110           JUNCTION        0.49          0.499        1.351
  WS02006112           JUNCTION        1.47          0.223        1.457
  WS02006228           JUNCTION        2.21          0.757        1.443
  WS02006229           JUNCTION        2.23          0.872        1.578
  WS02006230           JUNCTION        0.59          0.949        0.621
  WS02006231           JUNCTION        1.25          1.360        0.170
  WS02006232           JUNCTION        2.30          1.315        0.165
  WS02006234           JUNCTION        1.79          1.240        0.000
  WS02006235           JUNCTION        1.99          1.290        0.000
  WS02006238           JUNCTION        2.18          1.430        0.000
  WS02006239           JUNCTION        2.17          1.290        0.000
  WS02006240           JUNCTION        2.24          1.390        0.000
  WS02006242           JUNCTION        2.33          0.820        0.000
  WS02006243           JUNCTION        2.26          0.770        0.000
  WS02006245           JUNCTION        2.25          0.850        0.000
  WS02006247           JUNCTION        2.27          0.760        0.000
  WS02006248           JUNCTION        2.24          0.380        0.000
  WS02006249           JUNCTION        2.25          0.390        0.000
  WS02006251           JUNCTION        1.67          0.377        0.803
  WS02006252           JUNCTION        2.51          1.100        0.000
  WS02006256           JUNCTION        5.68          2.050        0.000
  YS02001580           JUNCTION        0.89          0.450        0.000
  YS02001583           JUNCTION        0.89          0.417        0.083
  YS02001586           JUNCTION        1.01          0.510        0.000
  YS02001590           JUNCTION        1.11          0.750        0.000
  YS02001593           JUNCTION        1.10          0.780        0.060
  YS02001596           JUNCTION        1.24          1.010        0.060
  YS02001600           JUNCTION        1.39          1.190        0.000
  YS02001601           JUNCTION        1.73          1.440        0.000
  YS02001602           JUNCTION        1.62          1.270        0.000
  YS02001605           JUNCTION        1.57          1.180        0.000
  YS02001607           JUNCTION        1.04          0.653        0.027
  YS02001610           JUNCTION        1.07          0.680        0.000
  YS02001613           JUNCTION        1.03          0.700        0.000
  YS02001616           JUNCTION        0.98          0.610        0.000
  YS02001619           JUNCTION        0.96          0.610        0.000
  YS02001622           JUNCTION        0.96          0.585        0.035
  YS02001625           JUNCTION        1.18          0.780        0.000
  YS02001629           JUNCTION        0.85          0.470        0.000
  YS02001633           JUNCTION        1.19          1.060        0.000
  YS02001641           JUNCTION        1.07          1.058        0.042
  YS02001644           JUNCTION        1.02          0.920        0.000
  YS02001647           JUNCTION        0.71          0.792        0.108
  YS02001649           JUNCTION        0.82          1.050        0.000
  YS02001652           JUNCTION        0.59          0.966        0.164
  YS02001655           JUNCTION        0.44          0.853        0.347
  YS02001658           JUNCTION        0.31          0.649        0.651
  YS02001661           JUNCTION        0.14          0.383        1.007
  YS02001748           JUNCTION        0.21          0.321        0.869
  YS02001751           JUNCTION        0.34          0.577        0.623
  YS02001754           JUNCTION        0.45          0.768        0.382
  YS02001757           JUNCTION        0.85          1.162        0.048
  YS02001759           JUNCTION        0.74          1.210        0.000
  YS02001762           JUNCTION        0.70          1.150        0.000
  YS02001765           JUNCTION        0.66          1.100        0.000
  YS02001767           JUNCTION        0.62          1.030        0.000
  YS02001770           JUNCTION        0.59          0.920        0.000
  YS02001774           JUNCTION        0.69          1.050        0.000
  YS02001779           JUNCTION        0.47          0.680        0.000
  YS02001783           JUNCTION        0.75          0.520        1.080
  YS02001784           JUNCTION        0.72          0.380        1.110
  YS02001786           JUNCTION        0.59          0.114        1.316
  YS02001882           JUNCTION        0.68          0.827        0.003
  YS02001884           JUNCTION        0.69          0.870        0.000
  YS02001887           JUNCTION        0.74          0.950        0.000
  YS02001890           JUNCTION        0.76          0.760        0.000
  YS02001895           JUNCTION        0.67          0.584        0.166
  YS02001898           JUNCTION        0.66          0.548        0.192
  YS02001901           JUNCTION        0.72          0.717        0.153
  YS02001904           JUNCTION        0.71          0.655        0.195
  YS02001907           JUNCTION        1.05          0.950        0.000
  YS02001910           JUNCTION        0.79          1.015        0.085
  YS02001915           JUNCTION        0.68          1.000        0.000
  YS02001918           JUNCTION        0.58          0.810        0.000
  YS02001920           JUNCTION        0.60          0.974        0.166
  YS02001923           JUNCTION        0.24          0.579        0.241
  YS02001926           JUNCTION        0.27          0.630        0.270
  YS02001929           JUNCTION        0.13          0.651        0.129
  YS02006553           JUNCTION        1.08          1.109        0.081
  YS02006556           JUNCTION        0.91          1.180        0.170
  YS02006558           JUNCTION        0.89          1.205        0.195
  YS02006561           JUNCTION        0.54          0.209        0.941
  YS02163301           JUNCTION        1.17          0.973        0.057
  YS02163601           JUNCTION        1.23          1.080        0.000
  YS02164001           JUNCTION        1.09          1.084        0.016
  
  
  *********************
  Node Flooding Summary
  *********************
  
  Flooding refers to all water that overflows a node, whether it ponds or not.
  --------------------------------------------------------------------------
                                                             Total   Maximum
                                 Maximum   Time of Max       Flood    Ponded
                        Hours       Rate    Occurrence      Volume     Depth
  Node                 Flooded       LPS   days hr:min    10^6 ltr    Meters
  --------------------------------------------------------------------------
  WS02006234              0.01    117.46      0  02:39       0.000     0.000
  WS02006235              0.01     41.88      0  02:29       0.000     0.000
  WS02006238              0.01     29.34      0  02:50       0.000     0.000
  WS02006239              0.01      8.44      0  02:50       0.000     0.000
  WS02006240              0.01     10.19      0  02:50       0.000     0.000
  WS02006242              0.03     38.94      0  02:29       0.001     0.000
  WS02006243              0.01      5.91      0  02:37       0.000     0.000
  WS02006245              0.01      0.39      0  02:13       0.000     0.000
  WS02006247              0.01      0.82      0  03:26       0.000     0.000
  WS02006248              0.24     38.26      0  01:43       0.013     0.000
  WS02006249              1.48    110.88      0  03:19       0.256     0.000
  WS02006252              0.01    245.63      0  00:00       0.000     0.000
  WS02006256              1.79    294.03      0  02:01       0.689     0.000
  YS02001580              0.01     48.41      0  01:55       0.000     0.000
  YS02001586              0.73    899.55      0  02:15       0.915     0.000
  YS02001590              0.01      0.67      0  01:57       0.000     0.000
  YS02001600              0.01      1.00      0  01:54       0.000     0.000
  YS02001601              0.92   2024.60      0  02:14       2.415     0.000
  YS02001602              0.71     61.98      0  02:21       0.146     0.000
  YS02001605              0.01      0.23      0  02:24       0.000     0.000
  YS02001610              0.64    952.53      0  02:18       1.279     0.000
  YS02001613              0.01      0.62      0  02:05       0.000     0.000
  YS02001616              0.09      2.54      0  02:10       0.000     0.000
  YS02001619              0.16    504.80      0  02:14       0.168     0.000
  YS02001625              0.56   1505.05      0  02:19       1.812     0.000
  YS02001629              0.27    398.13      0  02:14       0.161     0.000
  YS02001633              0.01      0.82      0  02:13       0.000     0.000
  YS02001644              0.29   2311.13      0  02:13       1.101     0.000
  YS02001649              0.01      0.49      0  02:13       0.000     0.000
  YS02001759              0.01      0.39      0  02:13       0.000     0.000
  YS02001762              0.01      2.91      0  02:05       0.000     0.000
  YS02001765              0.01      2.86      0  02:05       0.000     0.000
  YS02001767              0.01      2.27      0  02:05       0.000     0.000
  YS02001770              0.10    534.50      0  02:13       0.100     0.000
  YS02001774              0.01     10.00      0  02:02       0.000     0.000
  YS02001779              0.26    851.18      0  02:15       0.477     0.000
  YS02001884              0.01      0.16      0  02:13       0.000     0.000
  YS02001887              0.01      0.28      0  02:13       0.000     0.000
  YS02001890              0.29    795.83      0  02:13       0.326     0.000
  YS02001907              0.51   3112.75      0  02:13       2.647     0.000
  YS02001915              0.08    278.99      0  02:14       0.051     0.000
  YS02001918              0.01     15.24      0  02:02       0.000     0.000
  YS02163601              0.01      2.77      0  02:04       0.000     0.000
  
  
  **********************
  Storage Volume Summary
  **********************
  
  ------------------------------------------------------------------------------------------------
                         Average    Avg   Evap  Exfil     Maximum    Max    Time of Max    Maximum
                          Volume   Pcnt   Pcnt   Pcnt      Volume   Pcnt     Occurrence    Outflow
  Storage Unit           1000 m³   Full   Loss   Loss     1000 m³   Full    days hr:min        LPS
  ------------------------------------------------------------------------------------------------
  CC-storage               1.436   22.4    0.0    0.0       3.837   59.9       0  02:48    1783.53
  JK-storage               0.010    3.5    0.0    0.0       0.150   51.6       0  00:00    2300.00
  
  
  ***********************
  Outfall Loading Summary
  ***********************
  
  -----------------------------------------------------------
                         Flow       Avg       Max       Total
                         Freq      Flow      Flow      Volume
  Outfall Node           Pcnt       LPS       LPS    10^6 ltr
  -----------------------------------------------------------
  CC-1                  53.87    683.00    683.00       5.988
  CC-2                  53.87    683.00    683.00       5.988
  JK-1                  10.30   1000.00   1000.00       1.671
  JK-2                  10.30   1000.00   1000.00       1.671
  WSC                   99.94    274.57    553.33       5.321
  -----------------------------------------------------------
  System                45.65   3640.57   3905.61      20.638
  
  
  ********************
  Link Flow Summary
  ********************
  
  -----------------------------------------------------------------------------
                                 Maximum  Time of Max   Maximum    Max/    Max/
                                  |Flow|   Occurrence   |Veloc|    Full    Full
  Link                 Type          LPS  days hr:min     m/sec    Flow   Depth
  -----------------------------------------------------------------------------
  1                    CONDUIT    553.33     0  03:18      2.82    0.19    0.30
  WS02003060WS02003069 CONDUIT    551.70     0  03:16      1.64    0.22    0.34
  WS02003066WSF200     CONDUIT    535.07     0  03:15      2.85    0.09    0.22
  WS02003067WS02003066 CONDUIT    535.02     0  03:15      1.20    0.17    0.42
  WS02003069WS02003072 CONDUIT    551.81     0  03:16      1.37    0.27    0.39
  WS02003072WS02003073 CONDUIT    551.71     0  03:17      1.43    1.19    0.37
  WS02004401WS02004402 CONDUIT    542.52     0  03:20      1.22    0.65    0.86
  WS02004402WS02004403 CONDUIT    540.81     0  03:20      1.24    0.78    0.88
  WS02004403WS02004404 CONDUIT    536.19     0  03:13      1.24    0.39    0.93
  WS02004404WS02004405 CONDUIT    536.45     0  03:14      1.45    5.26    0.96
  WS02004405WS02004406 CONDUIT    537.82     0  03:21      1.46    1.06    0.96
  WS02004406WS02004407 CONDUIT    536.15     0  03:13      1.04    0.24    0.63
  WS02004407WS02004409 CONDUIT    536.02     0  03:13      1.59    0.19    0.48
  WS02004409WS02004410 CONDUIT    535.64     0  03:13      1.06    0.69    0.67
  WS02004410WS02004411 CONDUIT    535.35     0  03:14      1.13    0.73    0.68
  WS02004411WS02004412 CONDUIT    535.18     0  03:14      1.20    0.76    0.69
  WS02004412WS02004413 CONDUIT    535.15     0  03:14      1.22    0.36    0.78
  WS02004413WS02003067 CONDUIT    534.92     0  03:15      1.11    0.23    0.59
  WS02006109WS02006110 CONDUIT    598.22     0  03:19      1.19    1.15    1.00
  WS02006110WS02006113 CONDUIT    608.45     0  03:19      1.46    0.55    0.79
  WS02006111WS02006112 CONDUIT    554.46     0  03:19      1.95    0.26    0.68
  WS02006112WS02006115 CONDUIT    579.44     0  03:19      0.87    0.34    0.87
  WS02006113WS02006111 CONDUIT    583.08     0  03:19      2.52    0.70    0.47
  WS02006115WS02006116 CONDUIT    548.12     0  03:20      1.29    0.70    0.76
  WS02006116WS02004401 CONDUIT    542.22     0  03:20      1.21    0.75    0.84
  WS02006228WS02006109 CONDUIT    593.68     0  03:19      1.18    2.59    1.00
  WS02006229WS02006228 CONDUIT    591.26     0  03:19      1.18    1.96    1.00
  WS02006230WS02006229 CONDUIT    586.10     0  03:19      1.52   13.04    1.00
  WS02006231WS02006230 CONDUIT    589.89     0  03:40      1.60    8.95    1.00
  WS02006232WS02006231 CONDUIT    596.47     0  03:40      1.56    1.25    1.00
  WS02006234WS02006232 CONDUIT    593.47     0  03:40      1.54    1.20    1.00
  WS02006235WS02006234 CONDUIT    582.45     0  01:39      1.61    6.15    1.00
  WS02006238WS02006235 CONDUIT    453.42     0  01:39      1.47    1.01    1.00
  WS02006239WS02006238 CONDUIT    424.70     0  03:15      1.11    1.36    1.00
  WS02006240WS02006239 CONDUIT    425.48     0  03:45      1.24    1.34    1.00
  WS02006242WS02006240 CONDUIT    423.52     0  03:45      1.16    1.68    1.00
  WS02006243WS02006242 CONDUIT    423.27     0  03:45      1.38    0.90    1.00
  WS02006245WS02006243 CONDUIT    423.61     0  03:45      1.44    1.25    1.00
  WS02006247WS02006245 CONDUIT    423.23     0  03:44      1.43    3.36    1.00
  WS02006248WS02006247 CONDUIT    423.73     0  03:44      1.42    0.92    1.00
  WS02006249WS02006248 CONDUIT    424.63     0  03:44      1.36    2.33    1.00
  WS02006251WS02006249 CONDUIT    469.02     0  01:36      1.99    1.35    1.00
  WS02006252WS02006251 CONDUIT    409.83     0  03:21      4.99    1.50    1.00
  WS02006256WS02006235 CONDUIT    288.91     0  00:00      4.23    3.06    1.00
  WSF200WS02003060     CONDUIT    535.30     0  03:15      2.06    0.12    0.28
  YS02001580YS02001583 CONDUIT     75.35     0  01:54      0.50    0.29    1.00
  YS02001583YS02001586 CONDUIT    104.57     0  01:54      0.45    0.16    1.00
  YS02001586YS02001590 CONDUIT    318.16     0  02:24      1.26    0.56    1.00
  YS02001590YS02001593 CONDUIT    318.09     0  02:05      1.12    2.00    1.00
  YS02001593YS02001596 CONDUIT    317.99     0  02:30      1.78    0.50    1.00
  YS02001596YS02001600 CONDUIT    318.50     0  02:05      1.29    0.62    1.00
  YS02001600YS02001601 CONDUIT    318.35     0  02:05      1.13    0.55    1.00
  YS02001601YS02001602 CONDUIT    493.00     0  02:49      1.74    1.78    1.00
  YS02001602YS02001605 CONDUIT    493.02     0  02:49      1.74   10.43    1.00
  YS02001605YS02001607 CONDUIT    492.97     0  02:49      1.74    2.70    1.00
  YS02001607YS02001610 CONDUIT    493.10     0  02:49      0.63    0.47    1.00
  YS02001610YS02001613 CONDUIT    616.51     0  02:17      0.78    0.71    1.00
  YS02001613YS02001616 CONDUIT    616.86     0  02:18      0.79    0.53    1.00
  YS02001616YS02001619 CONDUIT    616.41     0  02:17      0.78    1.07    1.00
  YS02001619YS02001622 CONDUIT   1053.90     0  02:19      1.34    1.55    1.00
  YS02001622YS02001625 CONDUIT   1053.68     0  02:17      1.34    0.56    1.00
  YS02001625YS02001629 CONDUIT    933.65     0  02:00      1.19    0.44    1.00
  YS02001629YS02163301 CONDUIT    934.01     0  02:00      1.19    1.15    1.00
  YS02001633YS02163601 CONDUIT   1365.44     0  02:01      1.74    1.43    1.00
  YS02001641YS02001644 CONDUIT   1365.21     0  02:00      1.74    4.41    1.00
  YS02001644YS02001647 CONDUIT   1755.06     0  02:00      2.23    1.03    1.00
  YS02001647YS02001649 CONDUIT   1771.96     0  02:01      2.31    0.94    1.00
  YS02001649YS02001757 CONDUIT   2027.17     0  02:01      2.58    1.23    1.00
  YS02001652YS02001649 CONDUIT   1402.14     0  02:13      1.79    0.69    1.00
  YS02001655YS02001652 CONDUIT   1401.99     0  02:13      1.79    0.68    1.00
  YS02001658YS02001655 CONDUIT   1402.30     0  02:13      1.81    0.59    1.00
  YS02001661YS02001658 CONDUIT   1402.06     0  02:13      2.26    0.55    1.00
  YS02001664YS02001661 CONDUIT   1401.67     0  02:13      2.27    0.44    0.98
  YS02001745YS02001748 CONDUIT    882.54     0  02:13      2.11    0.34    0.99
  YS02001748YS02001751 CONDUIT    882.90     0  02:13      1.64    0.45    1.00
  YS02001751YS02001754 CONDUIT    881.96     0  02:13      1.37    0.43    1.00
  YS02001754YS02001757 CONDUIT    882.10     0  02:13      1.12    0.36    1.00
  YS02001757CaochengTiaoxuchi CONDUIT   3662.00     0  02:12      5.65    1.59    1.00
  YS02001759YS02001757 CONDUIT   1555.86     0  02:13      1.98    1.11    1.00
  YS02001762YS02001759 CONDUIT    822.06     0  02:21      1.05    0.95    1.00
  YS02001765YS02001762 CONDUIT    821.35     0  02:21      1.05    0.77    1.00
  YS02001767YS02001765 CONDUIT    821.06     0  02:21      1.05    1.03    1.00
  YS02001770YS02001767 CONDUIT    820.41     0  02:21      1.04    3.25    1.00
  YS02001774YS02001770 CONDUIT    851.88     0  02:15      1.08    0.54    1.00
  YS02001779YS02001774 CONDUIT    851.43     0  02:15      1.08    0.43    1.00
  YS02001783YS02001784 CONDUIT   1184.12     0  02:13      2.36    1.63    1.00
  YS02001784YS02001785 CONDUIT   1186.01     0  02:13      2.36    2.76    1.00
  YS02001786YS02001788 CONDUIT   1187.62     0  02:13      2.51    2.29    0.89
  YS02001788YS02001790 CONDUIT   1189.22     0  02:13      2.75    0.88    0.84
  YS02001790YS02001791 CONDUIT   1296.27     0  02:10      3.42    1.41    0.71
  YS02001791YS02001793 CONDUIT   1265.72     0  02:14      6.79    0.54    0.42
  YS02001793JiankangQianchi CONDUIT   1392.24     0  02:10     14.86    0.11    0.50
  YS02001882YS02001884 CONDUIT     26.36     0  01:58      0.16    0.03    1.00
  YS02001884YS02001887 CONDUIT     37.45     0  01:57      0.12    0.05    1.00
  YS02001887YS02001890 CONDUIT   1311.65     0  02:13      1.67    2.24    1.00
  YS02001890YS02001895 CONDUIT    518.57     0  02:17      0.66    0.24    1.00
  YS02001895YS02001898 CONDUIT    517.91     0  02:17      0.66    0.90    1.00
  YS02001898YS02001901 CONDUIT    517.43     0  02:15      0.66    0.33    1.00
  YS02001901YS02001904 CONDUIT    517.03     0  02:14      0.66    0.80    1.00
  YS02001904YS02001907 CONDUIT    517.84     0  02:17      0.66    0.18    1.00
  YS02001907YS02006553 CONDUIT    801.74     0  02:34      0.89    0.94    1.00
  YS02001910YS02001907 CONDUIT   1992.89     0  02:14      2.54    1.12    1.00
  YS02001915YS02001910 CONDUIT   1993.16     0  02:15      2.54    0.99    1.00
  YS02001918YS02001915 CONDUIT    752.11     0  02:14      0.96    0.41    1.00
  YS02001920YS02001918 CONDUIT    751.47     0  02:14      0.96    0.73    1.00
  YS02001923YS02001920 CONDUIT    748.67     0  02:14      0.95    0.34    1.00
  YS02001926YS02001923 CONDUIT    748.04     0  02:14      0.95    1.07    1.00
  YS02001929YS02001926 CONDUIT    748.23     0  02:14      1.07    0.36    1.00
  YS02006553YS02006556 CONDUIT    801.06     0  02:34      1.02    0.69    1.00
  YS02006556YS02006558 CONDUIT    802.74     0  02:34      1.02    0.63    1.00
  YS02006558YS02006561 CONDUIT   1182.08     0  02:13      4.18    2.61    1.00
  YS02006561YS02001783 CONDUIT   1183.83     0  02:13      2.36    0.61    1.00
  YS02163301YS02001633 CONDUIT    932.52     0  02:00      1.19    0.88    1.00
  YS02163601YS02164001 CONDUIT   1365.36     0  02:01      1.74    1.21    1.00
  YS02164001YS02001641 CONDUIT   1365.37     0  02:00      1.74    1.86    1.00
  CC-R1                PUMP       683.00     0  00:00              1.00
  CC-R2                PUMP       683.00     0  00:00              1.00
  CC-S1                PUMP       200.00     0  00:00              1.00
  CC-S2                PUMP       200.00     0  00:00              1.00
  JK-R1                PUMP      1000.00     0  00:00              1.00
  JK-R2                PUMP      1000.00     0  00:00              1.00
  JK-S                 PUMP       300.00     0  00:00              1.00
  
  
  ***************************
  Flow Classification Summary
  ***************************
  
  -------------------------------------------------------------------------------------
                      Adjusted    ---------- Fraction of Time in Flow Class ---------- 
                       /Actual         Up    Down  Sub   Sup   Up    Down  Norm  Inlet 
  Conduit               Length    Dry  Dry   Dry   Crit  Crit  Crit  Crit  Ltd   Ctrl  
  -------------------------------------------------------------------------------------
  1                       1.00   0.00  0.00  0.00  0.00  1.00  0.00  0.00  0.38  0.00
  WS02003060WS02003069    1.00   0.00  0.00  0.00  0.98  0.02  0.00  0.00  0.70  0.00
  WS02003066WSF200        1.00   0.05  0.00  0.00  0.00  0.95  0.00  0.00  0.80  0.00
  WS02003067WS02003066    1.00   0.05  0.00  0.00  0.95  0.00  0.00  0.00  0.00  0.00
  WS02003069WS02003072    1.00   0.00  0.00  0.00  0.99  0.01  0.00  0.00  0.71  0.00
  WS02003072WS02003073    1.00   0.00  0.00  0.00  0.00  0.00  0.00  1.00  0.00  0.00
  WS02004401WS02004402    1.00   0.02  0.00  0.00  0.98  0.00  0.00  0.00  0.00  0.00
  WS02004402WS02004403    1.00   0.02  0.00  0.00  0.98  0.00  0.00  0.00  0.00  0.00
  WS02004403WS02004404    1.00   0.00  0.03  0.00  0.97  0.00  0.00  0.00  0.00  0.00
  WS02004404WS02004405    1.00   0.00  0.00  0.00  1.00  0.00  0.00  0.00  0.01  0.00
  WS02004405WS02004406    1.00   0.00  0.00  0.00  1.00  0.00  0.00  0.00  0.00  0.00
  WS02004406WS02004407    1.00   0.00  0.03  0.00  0.97  0.00  0.00  0.00  0.00  0.00
  WS02004407WS02004409    1.00   0.03  0.00  0.00  0.95  0.01  0.00  0.00  0.96  0.00
  WS02004409WS02004410    1.00   0.03  0.00  0.00  0.96  0.00  0.00  0.00  0.00  0.00
  WS02004410WS02004411    1.00   0.04  0.00  0.00  0.96  0.00  0.00  0.00  0.00  0.00
  WS02004411WS02004412    1.00   0.04  0.00  0.00  0.96  0.00  0.00  0.00  0.00  0.00
  WS02004412WS02004413    1.00   0.04  0.00  0.00  0.96  0.00  0.00  0.00  0.00  0.00
  WS02004413WS02003067    1.00   0.04  0.01  0.00  0.00  0.00  0.95  0.00  0.00  0.00
  WS02006109WS02006110    1.00   0.00  0.01  0.00  0.98  0.00  0.01  0.00  0.00  0.00
  WS02006110WS02006113    1.00   0.01  0.01  0.00  0.98  0.00  0.00  0.00  0.00  0.00
  WS02006111WS02006112    1.00   0.02  0.00  0.00  0.98  0.00  0.00  0.00  0.98  0.00
  WS02006112WS02006115    1.00   0.02  0.00  0.00  0.97  0.00  0.00  0.00  0.00  0.00
  WS02006113WS02006111    1.00   0.02  0.00  0.00  0.00  0.98  0.00  0.00  0.12  0.00
  WS02006115WS02006116    1.00   0.02  0.00  0.00  0.97  0.00  0.00  0.01  0.00  0.00
  WS02006116WS02004401    1.00   0.02  0.00  0.00  0.98  0.00  0.00  0.00  0.00  0.00
  WS02006228WS02006109    1.00   0.00  0.00  0.00  1.00  0.00  0.00  0.00  0.00  0.00
  WS02006229WS02006228    1.00   0.00  0.00  0.00  0.99  0.00  0.00  0.01  0.00  0.00
  WS02006230WS02006229    1.00   0.00  0.00  0.00  0.99  0.00  0.00  0.01  0.02  0.00
  WS02006231WS02006230    1.00   0.00  0.00  0.00  0.30  0.00  0.70  0.00  0.00  0.00
  WS02006232WS02006231    1.00   0.00  0.00  0.00  0.98  0.00  0.02  0.00  0.00  0.00
  WS02006234WS02006232    1.00   0.00  0.00  0.00  1.00  0.00  0.00  0.00  0.06  0.00
  WS02006235WS02006234    1.00   0.00  0.00  0.00  0.92  0.00  0.08  0.00  0.00  0.00
  WS02006238WS02006235    1.00   0.00  0.00  0.00  0.99  0.01  0.00  0.00  0.00  0.00
  WS02006239WS02006238    1.00   0.00  0.00  0.00  1.00  0.00  0.00  0.00  0.24  0.00
  WS02006240WS02006239    1.00   0.00  0.00  0.00  0.63  0.00  0.00  0.37  0.03  0.00
  WS02006242WS02006240    1.00   0.00  0.00  0.00  1.00  0.00  0.00  0.00  0.03  0.00
  WS02006243WS02006242    1.00   0.00  0.00  0.00  0.99  0.00  0.00  0.00  0.63  0.00
  WS02006245WS02006243    1.00   0.00  0.00  0.00  0.47  0.00  0.00  0.53  0.01  0.00
  WS02006247WS02006245    1.00   0.00  0.00  0.00  0.99  0.00  0.00  0.01  0.00  0.00
  WS02006248WS02006247    1.00   0.00  0.00  0.00  0.99  0.00  0.00  0.00  0.13  0.00
  WS02006249WS02006248    1.00   0.00  0.00  0.00  0.35  0.00  0.65  0.00  0.00  0.00
  WS02006251WS02006249    1.00   0.00  0.01  0.00  0.99  0.00  0.00  0.00  0.66  0.00
  WS02006252WS02006251    1.00   0.00  0.16  0.00  0.21  0.00  0.63  0.00  0.00  0.00
  WS02006256WS02006235    1.00   0.00  0.00  0.00  0.98  0.02  0.00  0.00  0.00  0.00
  WSF200WS02003060        1.00   0.00  0.05  0.00  0.48  0.47  0.00  0.00  0.65  0.00
  YS02001580YS02001583    1.00   0.24  0.53  0.00  0.23  0.00  0.00  0.00  0.63  0.00
  YS02001583YS02001586    1.00   0.39  0.32  0.00  0.29  0.00  0.00  0.00  0.63  0.00
  YS02001586YS02001590    1.00   0.13  0.00  0.00  0.47  0.04  0.00  0.36  0.36  0.00
  YS02001590YS02001593    1.00   0.13  0.01  0.00  0.16  0.00  0.71  0.00  0.00  0.00
  YS02001593YS02001596    1.00   0.13  0.00  0.00  0.18  0.01  0.00  0.68  0.02  0.00
  YS02001596YS02001600    1.00   0.13  0.00  0.00  0.24  0.01  0.00  0.62  0.04  0.00
  YS02001600YS02001601    1.00   0.13  0.01  0.00  0.86  0.00  0.00  0.00  0.57  0.00
  YS02001601YS02001602    1.00   0.13  0.01  0.00  0.87  0.00  0.00  0.00  0.00  0.00
  YS02001602YS02001605    1.00   0.13  0.00  0.00  0.87  0.00  0.00  0.00  0.00  0.00
  YS02001605YS02001607    1.00   0.14  0.00  0.00  0.86  0.00  0.00  0.00  0.00  0.00
  YS02001607YS02001610    1.00   0.13  0.01  0.00  0.86  0.00  0.00  0.00  0.01  0.00
  YS02001610YS02001613    1.00   0.13  0.00  0.00  0.87  0.00  0.00  0.00  0.00  0.00
  YS02001613YS02001616    1.00   0.13  0.00  0.00  0.87  0.00  0.00  0.00  0.00  0.00
  YS02001616YS02001619    1.00   0.13  0.00  0.00  0.87  0.00  0.00  0.00  0.00  0.00
  YS02001619YS02001622    1.00   0.13  0.00  0.00  0.87  0.00  0.00  0.00  0.26  0.00
  YS02001622YS02001625    1.00   0.13  0.00  0.00  0.87  0.00  0.00  0.00  0.03  0.00
  YS02001625YS02001629    1.00   0.13  0.04  0.00  0.20  0.00  0.63  0.00  0.00  0.00
  YS02001629YS02163301    1.00   0.15  0.01  0.00  0.84  0.00  0.00  0.00  0.00  0.00
  YS02001633YS02163601    1.00   0.00  0.01  0.00  0.99  0.00  0.00  0.00  0.14  0.00
  YS02001641YS02001644    1.00   0.00  0.01  0.00  0.99  0.00  0.00  0.00  0.00  0.00
  YS02001644YS02001647    1.00   0.00  0.16  0.00  0.84  0.00  0.00  0.00  0.00  0.00
  YS02001647YS02001649    1.00   0.00  0.16  0.00  0.53  0.31  0.00  0.00  0.54  0.00
  YS02001649YS02001757    1.00   0.00  0.00  0.00  0.66  0.34  0.00  0.00  0.46  0.00
  YS02001652YS02001649    1.00   0.00  0.00  0.00  0.97  0.03  0.00  0.00  0.71  0.00
  YS02001655YS02001652    1.00   0.00  0.00  0.00  0.22  0.01  0.00  0.77  0.07  0.00
  YS02001658YS02001655    1.00   0.00  0.14  0.00  0.66  0.20  0.00  0.00  0.68  0.00
  YS02001661YS02001658    1.00   0.14  0.00  0.00  0.48  0.38  0.00  0.00  0.70  0.00
  YS02001664YS02001661    1.00   0.13  0.00  0.00  0.72  0.15  0.00  0.00  0.84  0.00
  YS02001745YS02001748    1.00   0.00  0.00  0.00  0.09  0.01  0.00  0.90  0.05  0.00
  YS02001748YS02001751    1.00   0.00  0.00  0.00  0.81  0.19  0.00  0.00  0.76  0.00
  YS02001751YS02001754    1.00   0.00  0.00  0.00  0.17  0.01  0.00  0.82  0.03  0.00
  YS02001754YS02001757    1.00   0.00  0.00  0.00  1.00  0.00  0.00  0.00  0.81  0.00
  YS02001757CaochengTiaoxuchi    1.00   0.00  0.00  0.00  0.79  0.21  0.00  0.00  0.72  0.00
  YS02001759YS02001757    1.00   0.00  0.00  0.00  0.99  0.01  0.00  0.00  0.59  0.00
  YS02001762YS02001759    1.00   0.00  0.00  0.00  1.00  0.00  0.00  0.00  0.04  0.00
  YS02001765YS02001762    1.00   0.00  0.00  0.00  1.00  0.00  0.00  0.00  0.70  0.00
  YS02001767YS02001765    1.00   0.00  0.00  0.00  1.00  0.00  0.00  0.00  0.00  0.00
  YS02001770YS02001767    1.00   0.00  0.00  0.00  1.00  0.00  0.00  0.00  0.00  0.00
  YS02001774YS02001770    1.00   0.00  0.13  0.00  0.72  0.00  0.15  0.00  0.02  0.00
  YS02001779YS02001774    1.00   0.00  0.00  0.00  1.00  0.00  0.00  0.00  0.75  0.00
  YS02001783YS02001784    1.00   0.00  0.17  0.00  0.83  0.00  0.00  0.00  0.54  0.00
  YS02001784YS02001785    1.00   0.00  0.00  0.00  1.00  0.00  0.00  0.00  0.16  0.00
  YS02001786YS02001788    1.00   0.00  0.00  0.00  0.79  0.21  0.00  0.00  0.00  0.00
  YS02001788YS02001790    1.00   0.00  0.00  0.00  0.21  0.79  0.00  0.00  0.78  0.00
  YS02001790YS02001791    1.00   0.00  0.00  0.00  0.01  0.99  0.00  0.00  0.16  0.00
  YS02001791YS02001793    1.00   0.00  0.00  0.00  0.00  1.00  0.00  0.00  0.01  0.00
  YS02001793JiankangQianchi    1.00   0.00  0.00  0.00  0.62  0.38  0.00  0.00  0.93  0.00
  YS02001882YS02001884    1.00   0.15  0.01  0.00  0.85  0.00  0.00  0.00  0.00  0.00
  YS02001884YS02001887    1.00   0.06  0.05  0.00  0.89  0.00  0.00  0.00  0.00  0.00
  YS02001887YS02001890    1.00   0.00  0.00  0.00  0.97  0.00  0.03  0.00  0.00  0.00
  YS02001890YS02001895    1.00   0.00  0.15  0.00  0.85  0.00  0.00  0.00  0.00  0.00
  YS02001895YS02001898    1.00   0.15  0.00  0.00  0.83  0.00  0.02  0.00  0.00  0.00
  YS02001898YS02001901    1.00   0.16  0.00  0.00  0.84  0.00  0.00  0.00  0.01  0.00
  YS02001901YS02001904    1.00   0.16  0.00  0.00  0.84  0.00  0.00  0.00  0.00  0.00
  YS02001904YS02001907    1.00   0.00  0.15  0.00  0.84  0.00  0.00  0.00  0.00  0.00
  YS02001907YS02006553    1.00   0.00  0.02  0.00  0.98  0.00  0.00  0.00  0.00  0.00
  YS02001910YS02001907    1.00   0.00  0.00  0.00  0.97  0.00  0.00  0.03  0.12  0.00
  YS02001915YS02001910    1.00   0.00  0.00  0.00  0.97  0.03  0.00  0.00  0.13  0.00
  YS02001918YS02001915    1.00   0.00  0.01  0.00  0.98  0.02  0.00  0.00  0.70  0.00
  YS02001920YS02001918    1.00   0.00  0.01  0.00  0.99  0.00  0.00  0.00  0.00  0.00
  YS02001923YS02001920    1.00   0.00  0.00  0.00  1.00  0.00  0.00  0.00  0.89  0.00
  YS02001926YS02001923    1.00   0.00  0.07  0.00  0.09  0.00  0.84  0.00  0.00  0.00
  YS02001929YS02001926    1.00   0.00  0.13  0.00  0.87  0.00  0.00  0.00  0.79  0.00
  YS02006553YS02006556    1.00   0.01  0.00  0.00  0.99  0.00  0.00  0.00  0.03  0.00
  YS02006556YS02006558    1.00   0.00  0.00  0.00  1.00  0.00  0.00  0.00  0.00  0.00
  YS02006558YS02006561    1.00   0.17  0.00  0.00  0.08  0.75  0.00  0.00  0.17  0.00
  YS02006561YS02001783    1.00   0.17  0.00  0.00  0.12  0.71  0.00  0.00  0.65  0.00
  YS02163301YS02001633    1.00   0.00  0.14  0.00  0.86  0.00  0.00  0.00  0.00  0.00
  YS02163601YS02164001    1.00   0.00  0.08  0.00  0.92  0.00  0.00  0.00  0.00  0.00
  YS02164001YS02001641    1.00   0.01  0.08  0.00  0.92  0.00  0.00  0.00  0.05  0.00
  
  
  *************************
  Conduit Surcharge Summary
  *************************
  
  ----------------------------------------------------------------------------
                                                           Hours        Hours 
                         --------- Hours Full --------   Above Full   Capacity
  Conduit                Both Ends  Upstream  Dnstream   Normal Flow   Limited
  ----------------------------------------------------------------------------
  WS02003072WS02003073        0.01      0.01      0.01      1.93         0.01
  WS02004404WS02004405        0.01      0.01      0.01      2.88         0.01
  WS02004405WS02004406        0.01      0.01      0.01      1.29         0.01
  WS02006109WS02006110        0.48      0.48      2.29      0.84         0.01
  WS02006110WS02006113        0.01      0.01      2.27      0.01         0.01
  WS02006111WS02006112        0.01      0.01      2.34      0.01         0.01
  WS02006112WS02006115        0.01      0.01      1.47      0.01         0.01
  WS02006228WS02006109        2.22      2.28      2.22      2.54         2.21
  WS02006229WS02006228        2.21      2.23      2.21      2.43         2.18
  WS02006230WS02006229        2.35      2.39      2.35      3.20         2.35
  WS02006231WS02006230        0.58      0.58      1.53      2.96         0.01
  WS02006232WS02006231        1.24      1.24      2.30      1.34         0.01
  WS02006234WS02006232        2.01      2.02      2.30      1.27         1.11
  WS02006235WS02006234        1.72      1.78      1.97      2.86         0.14
  WS02006238WS02006235        2.03      2.03      2.31      0.01         0.07
  WS02006239WS02006238        2.17      2.30      2.17      2.39         1.77
  WS02006240WS02006239        2.16      2.25      2.16      2.39         1.67
  WS02006242WS02006240        2.24      2.24      2.37      2.47         0.03
  WS02006243WS02006242        2.27      2.27      2.33      0.01         0.34
  WS02006245WS02006243        2.25      2.26      2.25      1.97         1.39
  WS02006247WS02006245        2.25      2.28      2.25      2.52         2.07
  WS02006248WS02006247        2.25      2.25      2.27      0.01         0.37
  WS02006249WS02006248        2.23      2.24      2.25      2.51         0.01
  WS02006251WS02006249        2.25      2.26      2.25      2.47         2.01
  WS02006252WS02006251        2.51      2.51      2.51      2.51         0.01
  WS02006256WS02006235        2.68      2.90      5.46      1.82         0.03
  YS02001580YS02001583        0.89      0.89      0.93      0.01         0.01
  YS02001583YS02001586        0.89      0.89      1.01      0.01         0.01
  YS02001586YS02001590        1.02      1.02      1.11      0.01         0.01
  YS02001590YS02001593        1.10      1.10      1.13      1.14         0.01
  YS02001593YS02001596        1.12      1.12      1.24      0.01         0.01
  YS02001596YS02001600        1.30      1.30      1.39      0.01         0.01
  YS02001600YS02001601        1.46      1.46      1.73      0.01         0.01
  YS02001601YS02001602        1.62      1.62      1.77      1.42         0.01
  YS02001602YS02001605        1.57      1.57      1.62      2.54         0.01
  YS02001605YS02001607        1.52      1.57      1.52      1.69         1.52
  YS02001607YS02001610        1.04      1.04      1.07      0.01         0.01
  YS02001610YS02001613        1.03      1.03      1.07      0.01         0.01
  YS02001613YS02001616        0.98      0.98      1.03      0.01         0.01
  YS02001616YS02001619        0.96      0.96      0.98      0.15         0.10
  YS02001619YS02001622        0.96      0.96      0.96      1.16         0.94
  YS02001622YS02001625        0.96      0.96      1.18      0.01         0.01
  YS02001625YS02001629        0.85      0.85      1.18      0.01         0.01
  YS02001629YS02163301        1.16      1.16      1.17      0.48         0.42
  YS02001633YS02163601        1.19      1.19      1.23      0.62         0.61
  YS02001641YS02001644        1.02      1.07      1.02      1.79         1.01
  YS02001644YS02001647        0.71      0.71      1.02      0.05         0.01
  YS02001647YS02001649        0.71      0.71      0.82      0.01         0.01
  YS02001649YS02001757        0.80      0.82      0.85      0.49         0.39
  YS02001652YS02001649        0.62      0.62      0.82      0.01         0.01
  YS02001655YS02001652        0.44      0.44      0.59      0.01         0.01
  YS02001658YS02001655        0.31      0.31      0.44      0.01         0.01
  YS02001661YS02001658        0.14      0.14      0.31      0.01         0.01
  YS02001664YS02001661        0.01      0.01      0.18      0.01         0.01
  YS02001745YS02001748        0.01      0.01      0.21      0.01         0.01
  YS02001748YS02001751        0.27      0.27      0.34      0.01         0.01
  YS02001751YS02001754        0.34      0.34      0.45      0.01         0.01
  YS02001754YS02001757        0.49      0.49      0.85      0.01         0.01
  YS02001757CaochengTiaoxuchi        0.51      0.85      0.97      0.65         0.23
  YS02001759YS02001757        0.74      0.74      0.85      0.16         0.18
  YS02001762YS02001759        0.70      0.70      0.74      0.01         0.04
  YS02001765YS02001762        0.66      0.66      0.70      0.01         0.01
  YS02001767YS02001765        0.62      0.62      0.66      0.02         0.06
  YS02001770YS02001767        0.62      0.63      0.62      0.77         0.53
  YS02001774YS02001770        0.59      0.59      0.69      0.01         0.01
  YS02001779YS02001774        0.47      0.47      0.69      0.01         0.01
  YS02001783YS02001784        0.72      0.75      0.72      0.96         0.72
  YS02001784YS02001785        0.59      0.72      0.59      1.29         0.59
  YS02001786YS02001788        0.01      0.59      0.01      1.10         0.01
  YS02001790YS02001791        0.01      0.01      0.01      0.70         0.01
  YS02001882YS02001884        0.68      0.68      0.69      0.01         0.01
  YS02001884YS02001887        0.72      0.72      0.74      0.01         0.01
  YS02001887YS02001890        0.76      0.76      0.77      0.22         0.01
  YS02001890YS02001895        0.67      0.67      0.79      0.01         0.01
  YS02001895YS02001898        0.66      0.66      0.67      0.01         0.01
  YS02001898YS02001901        0.67      0.67      0.72      0.01         0.01
  YS02001901YS02001904        0.71      0.71      0.72      0.01         0.01
  YS02001904YS02001907        0.71      0.71      1.09      0.01         0.01
  YS02001907YS02006553        1.30      1.30      1.38      0.01         0.01
  YS02001910YS02001907        0.79      0.79      1.05      0.11         0.11
  YS02001915YS02001910        0.68      0.68      0.79      0.01         0.01
  YS02001918YS02001915        0.58      0.58      0.68      0.01         0.01
  YS02001920YS02001918        0.58      0.58      0.60      0.01         0.01
  YS02001923YS02001920        0.53      0.53      0.60      0.01         0.01
  YS02001926YS02001923        0.24      0.24      0.27      0.06         0.01
  YS02001929YS02001926        0.13      0.13      0.27      0.01         0.01
  YS02006553YS02006556        0.91      0.91      1.08      0.01         0.01
  YS02006556YS02006558        1.00      1.00      1.11      0.01         0.01
  YS02006558YS02006561        0.62      0.89      0.62      1.22         0.62
  YS02006561YS02001783        0.54      0.54      0.75      0.01         0.01
  YS02163301YS02001633        1.17      1.17      1.22      0.01         0.01
  YS02163601YS02164001        1.09      1.09      1.23      0.30         0.01
  YS02164001YS02001641        1.07      1.09      1.07      0.97         0.80
  
  
  ***************
  Pumping Summary
  ***************
  
  ---------------------------------------------------------------------------------------------------------
                                                  Min       Avg       Max     Total     Power    % Time Off
                        Percent   Number of      Flow      Flow      Flow    Volume     Usage    Pump Curve
  Pump                 Utilized   Start-Ups       LPS       LPS       LPS  10^6 ltr     Kw-hr    Low   High
  ---------------------------------------------------------------------------------------------------------
  CC-R1                   30.76           2      0.00    683.00    683.00     5.987    102.53    0.0   60.3
  CC-R2                   30.76           2      0.00    683.00    683.00     5.987    102.53    0.0   60.3
  CC-S1                   31.76           2      0.00    200.00    200.00     1.810     12.85    0.0   24.4
  CC-S2                   31.76           2      0.00    200.00    200.00     1.810     12.85    0.0   24.4
  JK-R1                    5.92          77      0.00   1000.00   1000.00     1.686      5.28    0.0    0.0
  JK-R2                    5.92          77      0.00   1000.00   1000.00     1.686      5.28    0.0    0.0
  JK-S                    22.55         110      0.00    300.00    300.00     1.928     42.89    0.0    0.0
  

  Analysis begun on:  Tue Apr 22 10:18:41 2025
  Analysis ended on:  Tue Apr 22 10:18:42 2025
  Total elapsed time: 00:00:01