
  EPA STORM WATER MANAGEMENT MODEL - VERSION 5.2 (Build 5.2.4)
  PYSWMM TOOLKIT API - VERSION v1.0 (2023-11-27)
  ------------------------------------------------------------

  WARNING 04: minimum elevation drop used for Conduit WS02004404WS02004405
  WARNING 03: negative offset ignored for Link YS02001904YS02001907
  
  ****************
  Analysis Options
  ****************
  Flow Units ............... LPS
  Process Models:
    Rainfall/Runoff ........ YES
    RDII ................... NO
    Snowmelt ............... NO
    Groundwater ............ NO
    Flow Routing ........... YES
    Ponding Allowed ........ NO
    Water Quality .......... NO
  Infiltration Method ...... HORTON
  Flow Routing Method ...... DYNWAVE
  Surcharge Method ......... EXTRAN
  Starting Date ............ 08/28/2015 08:00:00
  Ending Date .............. 08/28/2015 16:00:00
  Antecedent Dry Days ...... 8.0
  Report Time Step ......... 00:01:00
  Wet Time Step ............ 00:01:00
  Dry Time Step ............ 00:01:00
  Routing Time Step ........ 30.00 sec
  Variable Time Step ....... YES
  Maximum Trials ........... 8
  Number of Threads ........ 4
  Head Tolerance ........... 0.001500 m
  
  
  **************************        Volume         Depth
  Runoff Quantity Continuity     hectare-m            mm
  **************************     ---------       -------
  Total Precipitation ......         3.033        91.432
  Evaporation Loss .........         0.000         0.000
  Infiltration Loss ........         0.102         3.075
  Surface Runoff ...........         2.899        87.383
  Final Storage ............         0.033         0.997
  Continuity Error (%) .....        -0.026
  
  
  **************************        Volume        Volume
  Flow Routing Continuity        hectare-m      10^6 ltr
  **************************     ---------     ---------
  Dry Weather Inflow .......         0.025         0.248
  Wet Weather Inflow .......         2.898        28.979
  Groundwater Inflow .......         0.000         0.000
  RDII Inflow ..............         0.000         0.000
  External Inflow ..........         0.083         0.825
  External Outflow .........         2.027        20.273
  Flooding Loss ............         1.131        11.306
  Evaporation Loss .........         0.000         0.000
  Exfiltration Loss ........         0.000         0.000
  Initial Stored Volume ....         0.243         2.431
  Final Stored Volume ......         0.102         1.018
  Continuity Error (%) .....        -0.350
  
  
  *************************
  Highest Continuity Errors
  *************************
  Node YS02001583 (-9.49%)
  Node YS02001884 (5.29%)
  Node WS02006256 (-3.64%)
  
  
  ***************************
  Time-Step Critical Elements
  ***************************
  Link WS02004404WS02004405 (24.81%)
  Link WS02006238WS02006235 (23.01%)
  Link WS02003066WSF200 (10.23%)
  Link YS02001791YS02001793 (8.19%)
  Link YS02001793JiankangQianchi (5.42%)
  
  
  ********************************
  Highest Flow Instability Indexes
  ********************************
  Link WS02006252WS02006251 (41)
  Link WS02006113WS02006111 (36)
  Link YS02001602YS02001605 (26)
  Link WS02006238WS02006235 (23)
  Link YS02001596YS02001600 (23)
  
  
  *********************************
  Most Frequent Nonconverging Nodes
  *********************************
  Node CC-1 (38.78%)
  Node CC-2 (38.78%)
  Node JK-1 (38.78%)
  Node JK-2 (38.78%)
  Node WSC (38.78%)
  
  
  *************************
  Routing Time Step Summary
  *************************
  Minimum Time Step           :     0.01 sec
  Average Time Step           :     2.94 sec
  Maximum Time Step           :     6.43 sec
  % of Time in Steady State   :     0.00
  Average Iterations per Step :     4.71
  % of Steps Not Converging   :    38.78
  Time Step Frequencies       :
     30.000 - 13.228 sec      :     0.00 %
     13.228 -  5.833 sec      :    15.56 %
      5.833 -  2.572 sec      :    31.19 %
      2.572 -  1.134 sec      :    36.24 %
      1.134 -  0.500 sec      :    17.00 %
  
  
  ***************************
  Subcatchment Runoff Summary
  ***************************
  
  ------------------------------------------------------------------------------------------------------------------------------
                            Total      Total      Total      Total     Imperv       Perv      Total       Total     Peak  Runoff
                           Precip      Runon       Evap      Infil     Runoff     Runoff     Runoff      Runoff   Runoff   Coeff
  Subcatchment                 mm         mm         mm         mm         mm         mm         mm    10^6 ltr      LPS
  ------------------------------------------------------------------------------------------------------------------------------
  sub60                     91.43       0.00       0.00       1.86      79.27       9.11      88.38        1.16   730.66   0.967
  sub61                     91.43       0.00       0.00       2.70      74.77      12.85      87.62        1.61  1010.85   0.958
  sub62                     91.43       0.00       0.00       1.24      82.84       6.08      88.92        2.44  1428.16   0.972
  sub63                     91.43       0.00       0.00       4.95      63.95      21.57      85.53        1.94  1126.02   0.935
  sub64                     91.43       0.00       0.00       2.51      76.52      11.21      87.73        2.11  1160.25   0.960
  sub65                     91.43       0.00       0.00       2.17      78.30       9.72      88.02        2.42  1297.15   0.963
  sub66                     91.43       0.00       0.00       6.08      63.84      20.44      84.28        3.93  1690.68   0.922
  sub67                     91.43       0.00       0.00       1.20      82.88       6.12      89.01        1.66  1105.70   0.973
  sub68                     91.43       0.00       0.00       2.23      77.45      10.57      88.02        2.42  1464.26   0.963
  sub69                     91.43       0.00       0.00       1.99      77.61      11.72      89.34        3.31  1730.36   0.977
  sub70                     91.43       0.00       0.00       6.58      60.18      24.51      84.69        2.45   951.97   0.926
  sub71                     91.43       0.00       0.00       1.27      82.80       6.05      88.84        2.32  1257.64   0.972
  sub72                     91.43       0.00       0.00       1.13      83.63       5.27      88.90        1.22   607.08   0.972
  
  
  ******************
  Node Depth Summary
  ******************
  
  ---------------------------------------------------------------------------------
                                 Average  Maximum  Maximum  Time of Max    Reported
                                   Depth    Depth      HGL   Occurrence   Max Depth
  Node                 Type       Meters   Meters   Meters  days hr:min      Meters
  ---------------------------------------------------------------------------------
  WS02003060           JUNCTION     0.23     0.38     5.31     0  03:12        0.38
  WS02003066           JUNCTION     0.19     0.30     5.85     0  03:11        0.30
  WS02003067           JUNCTION     0.49     0.70     6.02     0  03:11        0.70
  WS02003069           JUNCTION     0.26     0.43     5.01     0  03:12        0.43
  WS02003072           JUNCTION     0.32     0.50     4.87     0  03:13        0.50
  WS02003073           JUNCTION     0.18     0.30     4.36     0  03:13        0.30
  WS02004401           JUNCTION     0.59     0.85     6.85     0  03:09        0.85
  WS02004402           JUNCTION     0.62     0.88     6.84     0  03:09        0.88
  WS02004403           JUNCTION     0.64     0.89     6.82     0  03:10        0.89
  WS02004404           JUNCTION     0.71     0.96     6.81     0  03:10        0.96
  WS02004405           JUNCTION     0.71     0.96     6.81     0  03:10        0.96
  WS02004406           JUNCTION     0.72     0.96     6.79     0  03:10        0.96
  WS02004407           JUNCTION     0.17     0.30     6.61     0  03:10        0.30
  WS02004409           JUNCTION     0.39     0.67     6.44     0  03:10        0.67
  WS02004410           JUNCTION     0.41     0.68     6.40     0  03:10        0.68
  WS02004411           JUNCTION     0.43     0.69     6.37     0  03:11        0.69
  WS02004412           JUNCTION     0.45     0.70     6.34     0  03:11        0.70
  WS02004413           JUNCTION     0.60     0.86     6.33     0  03:11        0.86
  WS02006109           JUNCTION     0.67     1.58     8.20     0  02:38        1.53
  WS02006110           JUNCTION     0.67     1.71     8.29     0  02:38        1.06
  WS02006111           JUNCTION     0.18     0.29     7.00     0  02:54        0.29
  WS02006112           JUNCTION     0.75     1.10     6.98     0  02:38        1.05
  WS02006113           JUNCTION     0.28     0.46     7.35     0  02:53        0.46
  WS02006115           JUNCTION     0.48     0.75     6.89     0  03:09        0.75
  WS02006116           JUNCTION     0.56     0.83     6.87     0  03:09        0.83
  WS02006228           JUNCTION     0.68     1.41     8.06     0  02:38        1.30
  WS02006229           JUNCTION     0.65     1.33     8.03     0  02:36        1.17
  WS02006230           JUNCTION     0.67     1.58     8.33     0  02:36        1.26
  WS02006231           JUNCTION     0.47     1.69     8.81     0  02:17        1.07
  WS02006232           JUNCTION     0.60     1.75     8.79     0  01:59        1.68
  WS02006234           JUNCTION     0.54     1.96     9.12     0  02:01        1.96
  WS02006235           JUNCTION     0.59     2.00     9.16     0  01:34        2.00
  WS02006238           JUNCTION     0.61     2.13     9.27     0  02:01        2.13
  WS02006239           JUNCTION     0.58     2.03     9.24     0  02:27        1.88
  WS02006240           JUNCTION     0.55     1.84     9.13     0  02:27        1.78
  WS02006242           JUNCTION     0.62     1.55     8.82     0  01:41        1.55
  WS02006243           JUNCTION     0.55     1.48     8.90     0  01:41        1.48
  WS02006245           JUNCTION     0.55     1.46     8.95     0  01:41        1.46
  WS02006247           JUNCTION     0.57     1.38     8.88     0  01:41        1.38
  WS02006248           JUNCTION     0.54     1.10     8.69     0  01:36        1.10
  WS02006249           JUNCTION     0.57     1.09     8.69     0  01:36        1.09
  WS02006251           JUNCTION     0.57     1.43     9.10     0  03:36        1.43
  WS02006252           JUNCTION     0.37     1.50     9.74     0  00:00        0.99
  WS02006256           JUNCTION     1.19     2.35     9.28     0  00:00        2.35
  WSF200               JUNCTION     0.16     0.29     5.52     0  03:11        0.29
  YS02001580           JUNCTION     0.19     1.05     9.59     0  01:32        0.77
  YS02001583           JUNCTION     0.23     1.14     9.64     0  01:32        0.82
  YS02001586           JUNCTION     0.35     1.13     9.30     0  01:32        1.13
  YS02001590           JUNCTION     0.47     1.38     9.24     0  01:32        1.37
  YS02001593           JUNCTION     0.41     1.31     9.17     0  01:32        1.30
  YS02001596           JUNCTION     0.55     1.67     9.09     0  01:32        1.66
  YS02001600           JUNCTION     0.65     1.87     9.00     0  01:32        1.87
  YS02001601           JUNCTION     0.83     2.06     8.90     0  01:32        2.06
  YS02001602           JUNCTION     0.72     1.87     8.77     0  01:32        1.87
  YS02001605           JUNCTION     0.67     1.78     8.68     0  01:32        1.78
  YS02001607           JUNCTION     0.62     1.67     8.52     0  02:12        1.64
  YS02001610           JUNCTION     0.66     1.68     8.48     0  01:32        1.68
  YS02001613           JUNCTION     0.62     1.67     8.51     0  01:40        1.67
  YS02001616           JUNCTION     0.56     1.61     8.52     0  01:32        1.61
  YS02001619           JUNCTION     0.54     1.61     8.54     0  01:32        1.61
  YS02001622           JUNCTION     0.53     1.62     8.52     0  01:32        1.58
  YS02001625           JUNCTION     0.76     1.78     8.38     0  01:32        1.78
  YS02001629           JUNCTION     0.67     1.85     8.40     0  01:32        1.85
  YS02001633           JUNCTION     0.74     2.06     8.52     0  01:35        2.04
  YS02001641           JUNCTION     0.69     1.98     8.42     0  01:35        1.94
  YS02001644           JUNCTION     0.68     1.92     8.35     0  01:35        1.92
  YS02001647           JUNCTION     0.47     1.81     8.42     0  01:36        1.79
  YS02001649           JUNCTION     0.52     2.05     8.44     0  01:36        2.05
  YS02001652           JUNCTION     0.40     2.16     8.76     0  01:36        2.05
  YS02001655           JUNCTION     0.31     2.20     9.05     0  01:35        1.93
  YS02001658           JUNCTION     0.22     2.30     9.44     0  01:35        1.47
  YS02001661           JUNCTION     0.21     2.46     9.86     0  01:36        1.22
  YS02001664           JUNCTION     0.10     2.31    10.23     0  01:36        0.71
  YS02001745           JUNCTION     0.11     2.35     9.87     0  01:36        2.35
  YS02001748           JUNCTION     0.20     2.27     9.35     0  01:35        2.27
  YS02001751           JUNCTION     0.26     2.20     9.08     0  01:35        2.20
  YS02001754           JUNCTION     0.35     2.20     8.81     0  01:35        2.20
  YS02001757           JUNCTION     0.53     2.21     8.47     0  01:35        2.21
  YS02001759           JUNCTION     0.48     2.21     8.57     0  01:35        2.21
  YS02001762           JUNCTION     0.47     2.15     8.55     0  01:35        2.15
  YS02001765           JUNCTION     0.45     2.10     8.55     0  01:35        2.10
  YS02001767           JUNCTION     0.44     2.03     8.52     0  01:35        2.03
  YS02001770           JUNCTION     0.45     1.95     8.44     0  01:35        1.95
  YS02001774           JUNCTION     0.51     2.01     8.43     0  01:35        2.00
  YS02001779           JUNCTION     0.34     1.68     8.37     0  01:35        1.68
  YS02001783           JUNCTION     0.37     1.46     7.60     0  01:34        1.24
  YS02001784           JUNCTION     0.37     1.34     7.41     0  01:34        1.13
  YS02001786           JUNCTION     0.31     1.04     7.07     0  01:34        0.95
  YS02001788           JUNCTION     0.22     0.63     6.60     0  01:36        0.62
  YS02001790           JUNCTION     0.26     0.73     6.37     0  01:36        0.72
  YS02001791           JUNCTION     0.16     0.44     5.91     0  01:36        0.43
  YS02001793           JUNCTION     0.08     0.25     5.08     0  01:39        0.24
  YS02001882           JUNCTION     0.46     1.74     8.45     0  01:33        1.68
  YS02001884           JUNCTION     0.55     1.81     8.43     0  01:33        1.77
  YS02001887           JUNCTION     0.62     1.86     8.40     0  01:36        1.86
  YS02001890           JUNCTION     0.65     1.81     8.32     0  01:33        1.81
  YS02001895           JUNCTION     0.43     1.59     8.34     0  01:34        1.56
  YS02001898           JUNCTION     0.44     1.61     8.35     0  01:34        1.56
  YS02001901           JUNCTION     0.54     1.72     8.33     0  01:34        1.69
  YS02001904           JUNCTION     0.53     1.67     8.30     0  01:34        1.64
  YS02001907           JUNCTION     0.83     1.96     8.25     0  01:34        1.96
  YS02001910           JUNCTION     0.65     1.99     8.50     0  01:38        1.99
  YS02001915           JUNCTION     0.48     1.97     8.69     0  01:38        1.96
  YS02001918           JUNCTION     0.30     1.81     8.88     0  01:34        1.81
  YS02001920           JUNCTION     0.38     2.14     9.15     0  01:34        2.07
  YS02001923           JUNCTION     0.24     2.03     9.29     0  01:34        2.00
  YS02001926           JUNCTION     0.26     1.90     9.35     0  01:34        1.90
  YS02001929           JUNCTION     0.17     1.78     9.47     0  01:34        1.78
  YS02006553           JUNCTION     0.83     2.05     8.33     0  01:34        1.98
  YS02006556           JUNCTION     0.80     2.12     8.43     0  01:34        1.98
  YS02006558           JUNCTION     0.84     2.19     8.45     0  01:34        2.05
  YS02006561           JUNCTION     0.24     1.12     7.78     0  01:34        0.92
  YS02163301           JUNCTION     0.69     1.94     8.46     0  01:35        1.92
  YS02163601           JUNCTION     0.76     2.08     8.48     0  01:35        2.03
  YS02164001           JUNCTION     0.69     2.00     8.46     0  01:35        1.94
  CC-1                 OUTFALL      0.00     0.00     0.00     0  00:00        0.00
  CC-2                 OUTFALL      0.00     0.00     0.00     0  00:00        0.00
  JK-1                 OUTFALL      0.00     0.00     0.00     0  00:00        0.00
  JK-2                 OUTFALL      0.00     0.00     0.00     0  00:00        0.00
  WSC                  OUTFALL      0.18     0.30     0.97     0  03:13        0.30
  CC-storage           STORAGE      0.60     1.42     6.92     0  02:27        1.42
  JK-storage           STORAGE      0.20     2.99     3.79     0  00:00        0.68
  
  
  *******************
  Node Inflow Summary
  *******************
  
  -------------------------------------------------------------------------------------------------
                                  Maximum  Maximum                  Lateral       Total        Flow
                                  Lateral    Total  Time of Max      Inflow      Inflow     Balance
                                   Inflow   Inflow   Occurrence      Volume      Volume       Error
  Node                 Type           LPS      LPS  days hr:min    10^6 ltr    10^6 ltr     Percent
  -------------------------------------------------------------------------------------------------
  WS02003060           JUNCTION     16.53   552.38     0  03:12       0.471        5.15       0.040
  WS02003066           JUNCTION      0.00   535.85     0  03:11           0        4.68       0.031
  WS02003067           JUNCTION      0.00   535.85     0  03:11           0        4.68       0.087
  WS02003069           JUNCTION      0.32   552.69     0  03:12     0.00912        5.16       0.076
  WS02003072           JUNCTION      0.00   552.64     0  03:12           0        5.15       0.139
  WS02003073           JUNCTION      1.82   554.42     0  03:13      0.0519         5.2       0.106
  WS02004401           JUNCTION      0.00   539.52     0  02:53           0        4.78       0.213
  WS02004402           JUNCTION      0.00   537.23     0  02:53           0        4.77       0.216
  WS02004403           JUNCTION      0.00   537.12     0  02:59           0        4.76       0.211
  WS02004404           JUNCTION      0.16   536.71     0  03:10     0.00462        4.76       0.185
  WS02004405           JUNCTION      0.04   536.68     0  03:10     0.00109        4.75       0.253
  WS02004406           JUNCTION      0.00   536.71     0  03:10           0        4.74       0.439
  WS02004407           JUNCTION      0.00   536.42     0  03:10           0        4.72       0.021
  WS02004409           JUNCTION      0.00   536.31     0  03:10           0        4.72       0.054
  WS02004410           JUNCTION      0.00   536.15     0  03:10           0        4.71       0.093
  WS02004411           JUNCTION      0.00   536.00     0  03:10           0        4.71       0.117
  WS02004412           JUNCTION      0.00   535.97     0  03:11           0         4.7       0.156
  WS02004413           JUNCTION      0.00   535.92     0  03:11           0         4.7       0.290
  WS02006109           JUNCTION      1.23   560.54     0  02:38      0.0351        4.83       0.212
  WS02006110           JUNCTION      0.00   561.92     0  02:38           0        4.82       0.131
  WS02006111           JUNCTION      0.00   562.92     0  02:53           0        4.81       0.014
  WS02006112           JUNCTION      0.00   546.73     0  02:54           0        4.81       0.436
  WS02006113           JUNCTION      0.00   575.34     0  02:52           0        4.82       0.047
  WS02006115           JUNCTION      0.00   552.76     0  03:15           0        4.79       0.148
  WS02006116           JUNCTION      0.00   539.62     0  02:54           0        4.78       0.016
  WS02006228           JUNCTION      0.00   560.05     0  02:36           0         4.8       0.090
  WS02006229           JUNCTION      0.00   559.35     0  02:36           0        4.81       0.120
  WS02006230           JUNCTION     10.28   598.77     0  02:47       0.293        4.81       0.004
  WS02006231           JUNCTION      0.00   582.36     0  01:36           0        4.51      -0.121
  WS02006232           JUNCTION      0.00   579.13     0  01:36           0        4.53       0.399
  WS02006234           JUNCTION      0.00   570.99     0  03:19           0         4.5      -0.538
  WS02006235           JUNCTION      0.00   665.84     0  01:34           0        4.66       0.453
  WS02006238           JUNCTION      0.00   430.78     0  02:51           0        3.41      -0.061
  WS02006239           JUNCTION      0.00   428.13     0  02:51           0        3.32      -0.003
  WS02006240           JUNCTION      0.00   421.76     0  03:36           0        3.26       0.036
  WS02006242           JUNCTION      0.00   422.94     0  03:36           0        3.24      -0.038
  WS02006243           JUNCTION      0.00   424.35     0  03:36           0        3.22      -0.096
  WS02006245           JUNCTION      0.00   424.24     0  03:30           0        3.22       0.179
  WS02006247           JUNCTION      0.00   425.13     0  03:36           0        3.22       0.015
  WS02006248           JUNCTION      0.00   425.64     0  03:36           0        3.23       0.100
  WS02006249           JUNCTION      0.00   470.43     0  01:31           0        3.51       0.235
  WS02006251           JUNCTION      0.08   408.48     0  03:36     0.00219        3.51      -0.053
  WS02006252           JUNCTION      0.00   400.00     0  00:00           0        3.51       0.009
  WS02006256           JUNCTION      0.00   333.82     0  01:43           0        1.94      -3.511
  WSF200               JUNCTION      0.00   535.85     0  03:11           0        4.68       0.008
  YS02001580           JUNCTION      0.00   149.45     0  01:32           0     0.00446      -4.090
  YS02001583           JUNCTION      0.00   258.02     0  01:32           0       0.015      -8.666
  YS02001586           JUNCTION    951.97   951.97     0  01:42        2.45        2.46       0.071
  YS02001590           JUNCTION      0.00   318.04     0  02:13           0        1.66      -0.026
  YS02001593           JUNCTION      0.00   318.10     0  02:13           0        1.66       0.015
  YS02001596           JUNCTION      0.00   317.92     0  01:57           0        1.66       0.002
  YS02001600           JUNCTION      0.00   318.00     0  02:04           0        1.66       0.015
  YS02001601           JUNCTION   1730.36  2047.90     0  01:40        3.31        4.96       0.015
  YS02001602           JUNCTION      0.00   572.54     0  01:32           0        2.68       0.018
  YS02001605           JUNCTION      0.00   572.46     0  01:32           0        2.53       0.016
  YS02001607           JUNCTION      0.00   572.44     0  01:32           0        2.53       0.084
  YS02001610           JUNCTION      0.00   949.17     0  01:43           0         3.1       0.080
  YS02001613           JUNCTION      0.00   613.26     0  01:43           0        2.42       0.065
  YS02001616           JUNCTION      0.00   612.98     0  01:43           0        2.42       0.025
  YS02001619           JUNCTION   1690.68  1690.68     0  01:42        3.93        5.77      -0.004
  YS02001622           JUNCTION      0.00  1053.69     0  01:42           0        5.18      -0.008
  YS02001625           JUNCTION      0.00  1490.60     0  01:43           0         5.5       0.172
  YS02001629           JUNCTION      0.00   937.39     0  01:32           0        4.28       0.002
  YS02001633           JUNCTION   1297.35  1443.65     0  01:34        2.43        6.22       0.058
  YS02001641           JUNCTION      0.00  1441.44     0  01:34           0        5.76       0.052
  YS02001644           JUNCTION   1160.29  1959.32     0  01:34        2.11        7.86       0.041
  YS02001647           JUNCTION      0.00  1959.67     0  01:34           0           7       0.008
  YS02001649           JUNCTION      0.00  2244.14     0  01:34           0        8.95       0.008
  YS02001652           JUNCTION      0.00  1137.44     0  01:39           0        1.94      -0.120
  YS02001655           JUNCTION      0.15  1137.11     0  01:39     0.00439        1.95       0.013
  YS02001658           JUNCTION      0.00  1137.04     0  01:39           0        1.94      -0.020
  YS02001661           JUNCTION      0.00  1136.59     0  01:39           0        1.94       0.011
  YS02001664           JUNCTION   1126.02  1126.02     0  01:39        1.94        1.94      -0.034
  YS02001745           JUNCTION    730.66   753.97     0  01:35        1.16        1.16       0.088
  YS02001748           JUNCTION      0.04   850.30     0  01:35     0.00128        1.17      -0.264
  YS02001751           JUNCTION      0.01   741.59     0  01:39    0.000313        1.18       0.037
  YS02001754           JUNCTION      0.26   741.94     0  01:39     0.00741        1.19      -0.110
  YS02001757           JUNCTION      0.00  3568.18     0  01:40           0        13.7       0.045
  YS02001759           JUNCTION   1010.89  1601.79     0  01:35        1.61        3.61      -0.015
  YS02001762           JUNCTION      0.00   837.63     0  01:35           0           2      -0.008
  YS02001765           JUNCTION      0.00   839.85     0  01:35           0           2      -0.002
  YS02001767           JUNCTION      0.54   844.39     0  01:35      0.0152           2       0.003
  YS02001770           JUNCTION   1428.32  1428.32     0  01:39        2.44        2.48      -0.003
  YS02001774           JUNCTION      0.00   849.38     0  01:40           0       0.495       0.224
  YS02001779           JUNCTION      0.01   849.43     0  01:40    0.000142       0.451      -0.151
  YS02001783           JUNCTION      0.00  1170.86     0  01:36           0           5       0.006
  YS02001784           JUNCTION      1.06  1171.99     0  01:36      0.0302        5.03       0.010
  YS02001786           JUNCTION      0.06  1172.02     0  01:36      0.0016        5.03       0.015
  YS02001788           JUNCTION      0.07  1173.29     0  01:36     0.00202        5.03       0.005
  YS02001790           JUNCTION      0.15  1183.08     0  01:38     0.00442        5.03       0.017
  YS02001791           JUNCTION      0.00  1302.31     0  01:36           0        5.03      -0.024
  YS02001793           JUNCTION      0.00  1265.49     0  01:39           0        5.03      -0.014
  YS02001882           JUNCTION      0.00   121.50     0  01:33           0      0.0133       6.811
  YS02001884           JUNCTION      0.00   131.04     0  01:33           0      0.0494       5.588
  YS02001887           JUNCTION   1106.15  1106.30     0  01:38        1.67         1.7       0.267
  YS02001890           JUNCTION      0.00  1106.48     0  01:38           0        1.66       0.313
  YS02001895           JUNCTION      0.00   545.07     0  01:33           0        1.38       0.117
  YS02001898           JUNCTION      0.00   550.54     0  01:33           0        1.38       0.007
  YS02001901           JUNCTION      0.00   558.71     0  01:33           0        1.39       0.258
  YS02001904           JUNCTION      0.00   561.49     0  01:33           0        1.39       0.211
  YS02001907           JUNCTION      0.00  2663.08     0  01:40           0         5.1       0.357
  YS02001910           JUNCTION      0.00  1868.30     0  01:40           0        3.63       0.204
  YS02001915           JUNCTION   1257.66  1868.02     0  01:40        2.32        3.68       0.047
  YS02001918           JUNCTION      0.00   611.53     0  01:40           0        1.39       0.023
  YS02001920           JUNCTION      2.87   612.19     0  01:40      0.0818        1.36       0.025
  YS02001923           JUNCTION      0.04   760.54     0  01:34     0.00107        1.26      -0.041
  YS02001926           JUNCTION      0.05  1074.93     0  01:34     0.00149        1.24      -0.135
  YS02001929           JUNCTION    607.08  1006.88     0  01:34        1.22        1.23      -0.128
  YS02006553           JUNCTION      0.00   795.50     0  02:06           0        2.78       0.436
  YS02006556           JUNCTION      0.00   793.15     0  02:06           0        2.79       0.297
  YS02006558           JUNCTION   1465.14  1465.14     0  01:39        2.45        5.12       0.070
  YS02006561           JUNCTION      0.00  1196.08     0  01:34           0           5      -0.003
  YS02163301           JUNCTION      0.00   913.45     0  01:33           0        4.26       0.042
  YS02163601           JUNCTION      0.11  1443.26     0  01:34     0.00313        5.75       0.088
  YS02164001           JUNCTION      0.00  1441.92     0  01:34           0        5.75       0.046
  CC-1                 OUTFALL       0.00   683.00     0  00:00           0        5.91       0.000
  CC-2                 OUTFALL       0.00   683.00     0  00:00           0        5.91       0.000
  JK-1                 OUTFALL       0.00  1000.00     0  00:00           0        1.63       0.000
  JK-2                 OUTFALL       0.00  1000.00     0  00:00           0        1.63       0.000
  WSC                  OUTFALL       0.00   554.33     0  03:13           0        5.19       0.000
  CC-storage           STORAGE       0.00  3568.03     0  01:40           0        15.9      -0.287
  JK-storage           STORAGE       0.00  1416.69     0  01:39           0        5.18      -0.385
  
  
  **********************
  Node Surcharge Summary
  **********************
  
  Surcharging occurs when water rises above the top of the highest conduit.
  ---------------------------------------------------------------------
                                               Max. Height   Min. Depth
                                   Hours       Above Crown    Below Rim
  Node                 Type      Surcharged         Meters       Meters
  ---------------------------------------------------------------------
  WS02006109           JUNCTION        2.14          0.763        1.057
  WS02006110           JUNCTION        0.59          0.797        1.053
  WS02006112           JUNCTION        1.47          0.096        1.584
  WS02006228           JUNCTION        2.12          0.579        1.621
  WS02006229           JUNCTION        2.15          0.533        1.917
  WS02006230           JUNCTION        0.67          0.500        1.070
  WS02006231           JUNCTION        1.29          0.976        0.554
  WS02006232           JUNCTION        2.22          1.054        0.426
  WS02006234           JUNCTION        1.72          1.240        0.000
  WS02006235           JUNCTION        1.91          1.290        0.000
  WS02006238           JUNCTION        2.10          1.406        0.024
  WS02006239           JUNCTION        2.07          1.290        0.000
  WS02006240           JUNCTION        2.14          1.128        0.262
  WS02006242           JUNCTION        2.24          0.820        0.000
  WS02006243           JUNCTION        2.15          0.770        0.000
  WS02006245           JUNCTION        2.15          0.750        0.100
  WS02006247           JUNCTION        2.17          0.666        0.094
  WS02006248           JUNCTION        2.14          0.380        0.000
  WS02006249           JUNCTION        2.16          0.390        0.000
  WS02006251           JUNCTION        1.65          0.402        0.778
  WS02006252           JUNCTION        2.43          1.100        0.000
  WS02006256           JUNCTION        5.68          2.050        0.000
  YS02001580           JUNCTION        0.90          0.450        0.000
  YS02001583           JUNCTION        0.90          0.500        0.000
  YS02001586           JUNCTION        1.03          0.510        0.000
  YS02001590           JUNCTION        1.11          0.731        0.019
  YS02001593           JUNCTION        1.12          0.692        0.148
  YS02001596           JUNCTION        1.23          0.940        0.130
  YS02001600           JUNCTION        1.43          1.190        0.000
  YS02001601           JUNCTION        1.74          1.440        0.000
  YS02001602           JUNCTION        1.66          1.270        0.000
  YS02001605           JUNCTION        1.63          1.180        0.000
  YS02001607           JUNCTION        1.05          0.673        0.007
  YS02001610           JUNCTION        1.08          0.680        0.000
  YS02001613           JUNCTION        1.04          0.670        0.030
  YS02001616           JUNCTION        0.99          0.610        0.000
  YS02001619           JUNCTION        0.98          0.610        0.000
  YS02001622           JUNCTION        0.97          0.620        0.000
  YS02001625           JUNCTION        1.18          0.780        0.000
  YS02001629           JUNCTION        0.89          0.470        0.000
  YS02001633           JUNCTION        1.19          1.045        0.015
  YS02001641           JUNCTION        1.10          0.979        0.121
  YS02001644           JUNCTION        1.07          0.920        0.000
  YS02001647           JUNCTION        0.79          0.810        0.090
  YS02001649           JUNCTION        0.94          1.050        0.000
  YS02001652           JUNCTION        0.67          1.130        0.000
  YS02001655           JUNCTION        0.44          1.200        0.000
  YS02001658           JUNCTION        0.27          1.300        0.000
  YS02001661           JUNCTION        0.12          1.390        0.000
  YS02001664           JUNCTION        0.01          1.310        0.000
  YS02001745           JUNCTION        0.01          1.350        0.000
  YS02001748           JUNCTION        0.17          1.190        0.000
  YS02001751           JUNCTION        0.29          1.200        0.000
  YS02001754           JUNCTION        0.47          1.150        0.000
  YS02001757           JUNCTION        1.00          1.210        0.000
  YS02001759           JUNCTION        0.88          1.210        0.000
  YS02001762           JUNCTION        0.82          1.150        0.000
  YS02001765           JUNCTION        0.76          1.100        0.000
  YS02001767           JUNCTION        0.72          1.030        0.000
  YS02001770           JUNCTION        0.68          0.920        0.000
  YS02001774           JUNCTION        0.80          1.007        0.043
  YS02001779           JUNCTION        0.49          0.680        0.000
  YS02001783           JUNCTION        0.75          0.661        0.939
  YS02001784           JUNCTION        0.73          0.537        0.953
  YS02001786           JUNCTION        0.61          0.244        1.186
  YS02001882           JUNCTION        0.69          0.739        0.091
  YS02001884           JUNCTION        0.70          0.754        0.116
  YS02001887           JUNCTION        0.74          0.814        0.136
  YS02001890           JUNCTION        0.75          0.760        0.000
  YS02001895           JUNCTION        0.68          0.591        0.159
  YS02001898           JUNCTION        0.67          0.583        0.157
  YS02001901           JUNCTION        0.73          0.722        0.148
  YS02001904           JUNCTION        0.72          0.668        0.182
  YS02001907           JUNCTION        0.97          0.950        0.000
  YS02001910           JUNCTION        0.79          0.989        0.111
  YS02001915           JUNCTION        0.68          0.970        0.030
  YS02001918           JUNCTION        0.59          0.810        0.000
  YS02001920           JUNCTION        0.61          1.140        0.000
  YS02001923           JUNCTION        0.23          0.820        0.000
  YS02001926           JUNCTION        0.27          0.900        0.000
  YS02001929           JUNCTION        0.10          0.780        0.000
  YS02006553           JUNCTION        1.01          1.049        0.141
  YS02006556           JUNCTION        0.88          1.082        0.268
  YS02006558           JUNCTION        0.87          1.087        0.313
  YS02006561           JUNCTION        0.55          0.322        0.828
  YS02163301           JUNCTION        1.17          0.943        0.087
  YS02163601           JUNCTION        1.23          1.080        0.000
  YS02164001           JUNCTION        1.11          0.999        0.101
  
  
  *********************
  Node Flooding Summary
  *********************
  
  Flooding refers to all water that overflows a node, whether it ponds or not.
  --------------------------------------------------------------------------
                                                             Total   Maximum
                                 Maximum   Time of Max       Flood    Ponded
                        Hours       Rate    Occurrence      Volume     Depth
  Node                 Flooded       LPS   days hr:min    10^6 ltr    Meters
  --------------------------------------------------------------------------
  WS02006234              0.01    163.31      0  02:25       0.000     0.000
  WS02006235              0.01    190.50      0  01:34       0.000     0.000
  WS02006239              0.01      4.56      0  02:27       0.000     0.000
  WS02006242              0.01     33.40      0  02:01       0.001     0.000
  WS02006243              0.01      5.57      0  01:41       0.000     0.000
  WS02006248              0.21     34.36      0  02:01       0.010     0.000
  WS02006249              1.48     91.07      0  01:37       0.270     0.000
  WS02006252              0.01    245.63      0  00:00       0.000     0.000
  WS02006256              1.79    315.88      0  01:43       0.693     0.000
  YS02001580              0.01     80.23      0  01:32       0.000     0.000
  YS02001583              0.01    205.73      0  01:32       0.000     0.000
  YS02001586              0.74    634.38      0  01:42       0.790     0.000
  YS02001600              0.01      0.46      0  01:32       0.000     0.000
  YS02001601              0.93   1650.07      0  01:40       2.277     0.000
  YS02001602              0.76     62.51      0  02:12       0.157     0.000
  YS02001605              0.01      1.11      0  01:32       0.000     0.000
  YS02001610              0.68    949.13      0  01:43       1.264     0.000
  YS02001616              0.06     28.35      0  01:32       0.000     0.000
  YS02001619              0.08     94.03      0  01:32       0.005     0.000
  YS02001622              0.01    198.23      0  01:32       0.000     0.000
  YS02001625              0.61   1490.46      0  01:43       1.683     0.000
  YS02001629              0.21    457.67      0  01:37       0.165     0.000
  YS02001644              0.26   1612.59      0  01:39       0.839     0.000
  YS02001649              0.01    315.30      0  01:36       0.009     0.000
  YS02001652              0.01      4.60      0  01:36       0.000     0.000
  YS02001655              0.01     80.61      0  01:36       0.000     0.000
  YS02001658              0.01    355.80      0  01:35       0.001     0.000
  YS02001661              0.01     65.11      0  01:36       0.000     0.000
  YS02001664              0.01    190.57      0  01:36       0.000     0.000
  YS02001745              0.01    101.44      0  01:36       0.000     0.000
  YS02001748              0.01    438.38      0  01:35       0.002     0.000
  YS02001751              0.01     74.17      0  01:35       0.000     0.000
  YS02001754              0.01    113.70      0  01:35       0.000     0.000
  YS02001757              0.01     91.92      0  01:36       0.001     0.000
  YS02001759              0.01      3.97      0  01:36       0.000     0.000
  YS02001762              0.01     68.10      0  01:35       0.000     0.000
  YS02001765              0.01     67.29      0  01:35       0.000     0.000
  YS02001767              0.01     10.07      0  01:35       0.000     0.000
  YS02001770              0.08    165.97      0  01:35       0.025     0.000
  YS02001779              0.24    849.03      0  01:40       0.432     0.000
  YS02001890              0.25    589.29      0  01:38       0.270     0.000
  YS02001907              0.52   2662.85      0  01:40       2.400     0.000
  YS02001918              0.01    194.69      0  01:35       0.003     0.000
  YS02001920              0.01     46.93      0  01:34       0.000     0.000
  YS02001923              0.01     69.34      0  01:34       0.000     0.000
  YS02001926              0.01    534.03      0  01:34       0.004     0.000
  YS02001929              0.01    778.01      0  01:34       0.003     0.000
  YS02163601              0.01      5.59      0  01:35       0.000     0.000
  
  
  **********************
  Storage Volume Summary
  **********************
  
  ------------------------------------------------------------------------------------------------
                         Average    Avg   Evap  Exfil     Maximum    Max    Time of Max    Maximum
                          Volume   Pcnt   Pcnt   Pcnt      Volume   Pcnt     Occurrence    Outflow
  Storage Unit           1000 m³   Full   Loss   Loss     1000 m³   Full    days hr:min        LPS
  ------------------------------------------------------------------------------------------------
  CC-storage               1.679   26.2    0.0    0.0       3.954   61.7       0  02:27    1783.53
  JK-storage               0.010    3.5    0.0    0.0       0.150   51.6       0  00:00    2300.00
  
  
  ***********************
  Outfall Loading Summary
  ***********************
  
  -----------------------------------------------------------
                         Flow       Avg       Max       Total
                         Freq      Flow      Flow      Volume
  Outfall Node           Pcnt       LPS       LPS    10^6 ltr
  -----------------------------------------------------------
  CC-1                  53.27    683.00    683.00       5.908
  CC-2                  53.27    683.00    683.00       5.908
  JK-1                  10.02   1000.00   1000.00       1.633
  JK-2                  10.02   1000.00   1000.00       1.633
  WSC                   99.94    263.89    554.33       5.191
  -----------------------------------------------------------
  System                45.31   3629.89   3907.85      20.273
  
  
  ********************
  Link Flow Summary
  ********************
  
  -----------------------------------------------------------------------------
                                 Maximum  Time of Max   Maximum    Max/    Max/
                                  |Flow|   Occurrence   |Veloc|    Full    Full
  Link                 Type          LPS  days hr:min     m/sec    Flow   Depth
  -----------------------------------------------------------------------------
  1                    CONDUIT    554.33     0  03:13      2.83    0.19    0.30
  WS02003060WS02003069 CONDUIT    552.37     0  03:12      1.64    0.22    0.34
  WS02003066WSF200     CONDUIT    535.85     0  03:11      2.85    0.09    0.22
  WS02003067WS02003066 CONDUIT    535.85     0  03:11      1.21    0.17    0.42
  WS02003069WS02003072 CONDUIT    552.64     0  03:12      1.37    0.27    0.39
  WS02003072WS02003073 CONDUIT    552.60     0  03:13      1.43    1.19    0.37
  WS02004401WS02004402 CONDUIT    537.23     0  02:53      1.22    0.64    0.86
  WS02004402WS02004403 CONDUIT    537.12     0  02:59      1.24    0.77    0.88
  WS02004403WS02004404 CONDUIT    536.55     0  03:10      1.24    0.39    0.93
  WS02004404WS02004405 CONDUIT    536.64     0  03:10      1.45    5.26    0.96
  WS02004405WS02004406 CONDUIT    536.71     0  03:10      1.46    1.06    0.96
  WS02004406WS02004407 CONDUIT    536.42     0  03:10      1.04    0.24    0.63
  WS02004407WS02004409 CONDUIT    536.31     0  03:10      1.59    0.19    0.48
  WS02004409WS02004410 CONDUIT    536.15     0  03:10      1.06    0.69    0.67
  WS02004410WS02004411 CONDUIT    536.00     0  03:10      1.13    0.73    0.69
  WS02004411WS02004412 CONDUIT    535.97     0  03:11      1.20    0.76    0.69
  WS02004412WS02004413 CONDUIT    535.92     0  03:11      1.22    0.36    0.78
  WS02004413WS02003067 CONDUIT    535.85     0  03:11      1.11    0.23    0.59
  WS02006109WS02006110 CONDUIT    561.92     0  02:38      1.12    1.08    1.00
  WS02006110WS02006113 CONDUIT    575.34     0  02:52      1.38    0.52    0.79
  WS02006111WS02006112 CONDUIT    546.73     0  02:54      1.95    0.26    0.67
  WS02006112WS02006115 CONDUIT    552.76     0  03:15      0.86    0.33    0.87
  WS02006113WS02006111 CONDUIT    562.92     0  02:53      2.47    0.67    0.47
  WS02006115WS02006116 CONDUIT    539.62     0  02:54      1.29    0.69    0.76
  WS02006116WS02004401 CONDUIT    539.52     0  02:53      1.21    0.74    0.84
  WS02006228WS02006109 CONDUIT    559.31     0  02:38      1.11    2.44    1.00
  WS02006229WS02006228 CONDUIT    560.05     0  02:36      1.12    1.85    1.00
  WS02006230WS02006229 CONDUIT    559.35     0  02:36      1.45   12.45    1.00
  WS02006231WS02006230 CONDUIT    588.49     0  02:47      1.59    8.93    1.00
  WS02006232WS02006231 CONDUIT    582.36     0  01:36      1.55    1.22    1.00
  WS02006234WS02006232 CONDUIT    579.13     0  01:36      1.50    1.17    1.00
  WS02006235WS02006234 CONDUIT    570.99     0  03:19      1.59    6.02    1.00
  WS02006238WS02006235 CONDUIT    433.84     0  02:51      1.45    0.97    1.00
  WS02006239WS02006238 CONDUIT    430.78     0  02:51      1.12    1.38    1.00
  WS02006240WS02006239 CONDUIT    428.13     0  02:51      1.24    1.35    1.00
  WS02006242WS02006240 CONDUIT    421.76     0  03:36      1.16    1.68    1.00
  WS02006243WS02006242 CONDUIT    422.94     0  03:36      1.38    0.90    1.00
  WS02006245WS02006243 CONDUIT    424.35     0  03:36      1.44    1.26    1.00
  WS02006247WS02006245 CONDUIT    424.24     0  03:30      1.43    3.36    1.00
  WS02006248WS02006247 CONDUIT    425.13     0  03:36      1.44    0.93    1.00
  WS02006249WS02006248 CONDUIT    425.64     0  03:36      1.36    2.33    1.00
  WS02006251WS02006249 CONDUIT    470.43     0  01:31      2.00    1.36    1.00
  WS02006252WS02006251 CONDUIT    408.41     0  03:36      4.89    1.50    1.00
  WS02006256WS02006235 CONDUIT    288.91     0  00:00      4.23    3.06    1.00
  WSF200WS02003060     CONDUIT    535.85     0  03:12      2.06    0.12    0.28
  YS02001580YS02001583 CONDUIT    149.45     0  01:32      0.86    0.58    1.00
  YS02001583YS02001586 CONDUIT    195.69     0  01:32      0.89    0.30    1.00
  YS02001586YS02001590 CONDUIT    318.04     0  02:13      1.27    0.56    1.00
  YS02001590YS02001593 CONDUIT    318.10     0  02:13      1.13    2.00    1.00
  YS02001593YS02001596 CONDUIT    317.92     0  01:57      1.75    0.50    1.00
  YS02001596YS02001600 CONDUIT    318.00     0  02:04      1.24    0.62    1.00
  YS02001600YS02001601 CONDUIT    318.14     0  02:12      1.13    0.55    1.00
  YS02001601YS02001602 CONDUIT    572.54     0  01:32      2.02    2.07    1.00
  YS02001602YS02001605 CONDUIT    572.46     0  01:32      2.02   12.11    1.00
  YS02001605YS02001607 CONDUIT    572.44     0  01:32      2.02    3.14    1.00
  YS02001607YS02001610 CONDUIT    540.65     0  01:32      0.71    0.51    1.00
  YS02001610YS02001613 CONDUIT    613.17     0  01:43      0.78    0.71    1.00
  YS02001613YS02001616 CONDUIT    613.26     0  01:43      0.78    0.53    1.00
  YS02001616YS02001619 CONDUIT    612.98     0  01:43      0.78    1.06    1.00
  YS02001619YS02001622 CONDUIT   1053.69     0  01:42      1.34    1.55    1.00
  YS02001622YS02001625 CONDUIT   1053.64     0  01:42      1.34    0.56    1.00
  YS02001625YS02001629 CONDUIT    937.39     0  01:32      1.20    0.45    1.00
  YS02001629YS02163301 CONDUIT    913.45     0  01:33      1.16    1.12    1.00
  YS02001633YS02163601 CONDUIT   1443.15     0  01:34      1.84    1.51    1.00
  YS02001641YS02001644 CONDUIT   1440.32     0  01:34      1.83    4.66    1.00
  YS02001644YS02001647 CONDUIT   1959.67     0  01:34      2.50    1.15    1.00
  YS02001647YS02001649 CONDUIT   1924.61     0  01:34      2.45    1.02    1.00
  YS02001649YS02001757 CONDUIT   2220.26     0  01:34      2.83    1.35    1.00
  YS02001652YS02001649 CONDUIT   1137.18     0  01:39      1.45    0.56    1.00
  YS02001655YS02001652 CONDUIT   1137.44     0  01:39      1.54    0.55    1.00
  YS02001658YS02001655 CONDUIT   1136.96     0  01:39      2.04    0.48    1.00
  YS02001661YS02001658 CONDUIT   1137.04     0  01:39      2.44    0.45    1.00
  YS02001664YS02001661 CONDUIT   1136.59     0  01:39      2.58    0.36    1.00
  YS02001745YS02001748 CONDUIT    741.86     0  01:39      2.42    0.29    1.00
  YS02001748YS02001751 CONDUIT    741.58     0  01:39      1.89    0.37    1.00
  YS02001751YS02001754 CONDUIT    741.68     0  01:39      1.59    0.36    1.00
  YS02001754YS02001757 CONDUIT    741.95     0  01:39      0.94    0.30    1.00
  YS02001757CaochengTiaoxuchi CONDUIT   3568.03     0  01:40      6.10    1.54    1.00
  YS02001759YS02001757 CONDUIT   1598.07     0  01:35      2.03    1.14    1.00
  YS02001762YS02001759 CONDUIT    836.96     0  01:35      1.07    0.96    1.00
  YS02001765YS02001762 CONDUIT    837.63     0  01:35      1.07    0.79    1.00
  YS02001767YS02001765 CONDUIT    839.85     0  01:35      1.07    1.06    1.00
  YS02001770YS02001767 CONDUIT    843.85     0  01:35      1.07    3.34    1.00
  YS02001774YS02001770 CONDUIT    849.38     0  01:40      1.08    0.54    1.00
  YS02001779YS02001774 CONDUIT    849.43     0  01:40      1.08    0.43    1.00
  YS02001783YS02001784 CONDUIT   1170.93     0  01:36      2.33    1.61    1.00
  YS02001784YS02001785 CONDUIT   1171.96     0  01:36      2.33    2.73    1.00
  YS02001786YS02001788 CONDUIT   1173.22     0  01:36      2.49    2.26    0.89
  YS02001788YS02001790 CONDUIT   1182.93     0  01:38      2.73    0.87    0.85
  YS02001790YS02001791 CONDUIT   1302.31     0  01:36      3.42    1.42    0.71
  YS02001791YS02001793 CONDUIT   1265.49     0  01:39      6.79    0.54    0.43
  YS02001793JiankangQianchi CONDUIT   1416.69     0  01:39     14.83    0.11    0.50
  YS02001882YS02001884 CONDUIT    121.50     0  01:33      0.18    0.14    1.00
  YS02001884YS02001887 CONDUIT    131.04     0  01:33      0.17    0.17    1.00
  YS02001887YS02001890 CONDUIT   1106.48     0  01:38      1.41    1.89    1.00
  YS02001890YS02001895 CONDUIT    545.07     0  01:33      0.69    0.25    1.00
  YS02001895YS02001898 CONDUIT    550.54     0  01:33      0.70    0.96    1.00
  YS02001898YS02001901 CONDUIT    558.71     0  01:33      0.71    0.36    1.00
  YS02001901YS02001904 CONDUIT    561.49     0  01:33      0.71    0.87    1.00
  YS02001904YS02001907 CONDUIT    565.44     0  01:33      0.72    0.20    1.00
  YS02001907YS02006553 CONDUIT    795.50     0  02:06      0.88    0.94    1.00
  YS02001910YS02001907 CONDUIT   1868.89     0  01:40      2.38    1.05    1.00
  YS02001915YS02001910 CONDUIT   1868.30     0  01:40      2.38    0.93    1.00
  YS02001918YS02001915 CONDUIT    612.40     0  01:40      0.79    0.34    1.00
  YS02001920YS02001918 CONDUIT    611.53     0  01:40      0.78    0.59    1.00
  YS02001923YS02001920 CONDUIT    609.32     0  01:40      0.78    0.27    1.00
  YS02001926YS02001923 CONDUIT    845.69     0  01:34      1.29    1.21    1.00
  YS02001929YS02001926 CONDUIT    724.82     0  01:34      1.21    0.34    1.00
  YS02006553YS02006556 CONDUIT    793.15     0  02:06      1.01    0.68    1.00
  YS02006556YS02006558 CONDUIT    793.66     0  02:06      1.01    0.63    1.00
  YS02006558YS02006561 CONDUIT   1196.08     0  01:34      4.23    2.64    1.00
  YS02006561YS02001783 CONDUIT   1170.86     0  01:36      2.33    0.61    1.00
  YS02163301YS02001633 CONDUIT    913.84     0  01:33      1.16    0.86    1.00
  YS02163601YS02164001 CONDUIT   1441.92     0  01:34      1.84    1.28    1.00
  YS02164001YS02001641 CONDUIT   1441.44     0  01:34      1.84    1.97    1.00
  CC-R1                PUMP       683.00     0  00:00              1.00
  CC-R2                PUMP       683.00     0  00:00              1.00
  CC-S1                PUMP       200.00     0  00:00              1.00
  CC-S2                PUMP       200.00     0  00:00              1.00
  JK-R1                PUMP      1000.00     0  00:00              1.00
  JK-R2                PUMP      1000.00     0  00:00              1.00
  JK-S                 PUMP       300.00     0  00:00              1.00
  
  
  ***************************
  Flow Classification Summary
  ***************************
  
  -------------------------------------------------------------------------------------
                      Adjusted    ---------- Fraction of Time in Flow Class ---------- 
                       /Actual         Up    Down  Sub   Sup   Up    Down  Norm  Inlet 
  Conduit               Length    Dry  Dry   Dry   Crit  Crit  Crit  Crit  Ltd   Ctrl  
  -------------------------------------------------------------------------------------
  1                       1.00   0.00  0.00  0.00  0.00  1.00  0.00  0.00  0.34  0.00
  WS02003060WS02003069    1.00   0.00  0.00  0.00  0.98  0.02  0.00  0.00  0.72  0.00
  WS02003066WSF200        1.00   0.05  0.00  0.00  0.00  0.95  0.00  0.00  0.80  0.00
  WS02003067WS02003066    1.00   0.05  0.00  0.00  0.95  0.00  0.00  0.00  0.00  0.00
  WS02003069WS02003072    1.00   0.00  0.00  0.00  0.99  0.01  0.00  0.00  0.72  0.00
  WS02003072WS02003073    1.00   0.00  0.00  0.00  0.00  0.00  0.00  1.00  0.00  0.00
  WS02004401WS02004402    1.00   0.02  0.00  0.00  0.98  0.00  0.00  0.00  0.00  0.00
  WS02004402WS02004403    1.00   0.02  0.00  0.00  0.98  0.00  0.00  0.00  0.00  0.00
  WS02004403WS02004404    1.00   0.00  0.03  0.00  0.97  0.00  0.00  0.00  0.00  0.00
  WS02004404WS02004405    1.00   0.00  0.00  0.00  1.00  0.00  0.00  0.00  0.01  0.00
  WS02004405WS02004406    1.00   0.00  0.00  0.00  1.00  0.00  0.00  0.00  0.00  0.00
  WS02004406WS02004407    1.00   0.00  0.03  0.00  0.97  0.00  0.00  0.00  0.00  0.00
  WS02004407WS02004409    1.00   0.03  0.00  0.00  0.95  0.01  0.00  0.00  0.95  0.00
  WS02004409WS02004410    1.00   0.03  0.00  0.00  0.96  0.00  0.00  0.00  0.00  0.00
  WS02004410WS02004411    1.00   0.04  0.00  0.00  0.96  0.00  0.00  0.00  0.00  0.00
  WS02004411WS02004412    1.00   0.04  0.00  0.00  0.96  0.00  0.00  0.00  0.00  0.00
  WS02004412WS02004413    1.00   0.04  0.00  0.00  0.96  0.00  0.00  0.00  0.00  0.00
  WS02004413WS02003067    1.00   0.04  0.01  0.00  0.00  0.00  0.95  0.00  0.00  0.00
  WS02006109WS02006110    1.00   0.00  0.01  0.00  0.98  0.00  0.01  0.00  0.00  0.00
  WS02006110WS02006113    1.00   0.01  0.01  0.00  0.98  0.00  0.00  0.00  0.00  0.00
  WS02006111WS02006112    1.00   0.02  0.00  0.00  0.98  0.00  0.00  0.00  0.98  0.00
  WS02006112WS02006115    1.00   0.02  0.00  0.00  0.97  0.00  0.00  0.00  0.00  0.00
  WS02006113WS02006111    1.00   0.02  0.00  0.00  0.00  0.98  0.00  0.00  0.12  0.00
  WS02006115WS02006116    1.00   0.02  0.00  0.00  0.97  0.00  0.00  0.01  0.00  0.00
  WS02006116WS02004401    1.00   0.02  0.00  0.00  0.98  0.00  0.00  0.00  0.00  0.00
  WS02006228WS02006109    1.00   0.00  0.00  0.00  1.00  0.00  0.00  0.00  0.00  0.00
  WS02006229WS02006228    1.00   0.00  0.00  0.00  0.99  0.00  0.00  0.01  0.00  0.00
  WS02006230WS02006229    1.00   0.00  0.00  0.00  0.99  0.00  0.00  0.01  0.02  0.00
  WS02006231WS02006230    1.00   0.00  0.00  0.00  0.29  0.00  0.71  0.00  0.00  0.00
  WS02006232WS02006231    1.00   0.00  0.00  0.00  0.98  0.00  0.02  0.00  0.00  0.00
  WS02006234WS02006232    1.00   0.00  0.00  0.00  1.00  0.00  0.00  0.00  0.05  0.00
  WS02006235WS02006234    1.00   0.00  0.00  0.00  0.92  0.00  0.08  0.00  0.00  0.00
  WS02006238WS02006235    1.00   0.00  0.00  0.00  0.99  0.01  0.00  0.00  0.00  0.00
  WS02006239WS02006238    1.00   0.00  0.00  0.00  1.00  0.00  0.00  0.00  0.24  0.00
  WS02006240WS02006239    1.00   0.00  0.00  0.00  0.63  0.00  0.00  0.37  0.04  0.00
  WS02006242WS02006240    1.00   0.00  0.00  0.00  1.00  0.00  0.00  0.00  0.04  0.00
  WS02006243WS02006242    1.00   0.00  0.00  0.00  0.99  0.00  0.00  0.00  0.64  0.00
  WS02006245WS02006243    1.00   0.00  0.00  0.00  0.46  0.00  0.00  0.54  0.01  0.00
  WS02006247WS02006245    1.00   0.00  0.00  0.00  0.99  0.00  0.00  0.01  0.00  0.00
  WS02006248WS02006247    1.00   0.00  0.00  0.00  0.99  0.00  0.00  0.00  0.13  0.00
  WS02006249WS02006248    1.00   0.00  0.00  0.00  0.34  0.00  0.66  0.00  0.00  0.00
  WS02006251WS02006249    1.00   0.00  0.01  0.00  0.99  0.00  0.00  0.00  0.67  0.00
  WS02006252WS02006251    1.00   0.00  0.15  0.00  0.21  0.00  0.64  0.00  0.00  0.00
  WS02006256WS02006235    1.00   0.00  0.00  0.00  0.97  0.03  0.00  0.00  0.00  0.00
  WSF200WS02003060        1.00   0.00  0.05  0.00  0.49  0.46  0.00  0.00  0.66  0.00
  YS02001580YS02001583    1.00   0.19  0.58  0.00  0.23  0.00  0.00  0.00  0.67  0.00
  YS02001583YS02001586    1.00   0.41  0.30  0.00  0.29  0.00  0.00  0.00  0.67  0.00
  YS02001586YS02001590    1.00   0.13  0.00  0.00  0.45  0.04  0.00  0.39  0.34  0.00
  YS02001590YS02001593    1.00   0.13  0.01  0.00  0.16  0.00  0.71  0.00  0.00  0.00
  YS02001593YS02001596    1.00   0.13  0.00  0.00  0.18  0.01  0.00  0.67  0.03  0.00
  YS02001596YS02001600    1.00   0.14  0.00  0.00  0.23  0.01  0.00  0.62  0.03  0.00
  YS02001600YS02001601    1.00   0.13  0.01  0.00  0.86  0.00  0.00  0.00  0.58  0.00
  YS02001601YS02001602    1.00   0.13  0.01  0.00  0.87  0.00  0.00  0.00  0.00  0.00
  YS02001602YS02001605    1.00   0.13  0.00  0.00  0.87  0.00  0.00  0.00  0.00  0.00
  YS02001605YS02001607    1.00   0.14  0.00  0.00  0.86  0.00  0.00  0.00  0.00  0.00
  YS02001607YS02001610    1.00   0.13  0.01  0.00  0.86  0.00  0.00  0.00  0.01  0.00
  YS02001610YS02001613    1.00   0.13  0.00  0.00  0.87  0.00  0.00  0.00  0.00  0.00
  YS02001613YS02001616    1.00   0.13  0.00  0.00  0.87  0.00  0.00  0.00  0.00  0.00
  YS02001616YS02001619    1.00   0.13  0.00  0.00  0.87  0.00  0.00  0.00  0.00  0.00
  YS02001619YS02001622    1.00   0.13  0.00  0.00  0.87  0.00  0.00  0.00  0.27  0.00
  YS02001622YS02001625    1.00   0.13  0.00  0.00  0.87  0.00  0.00  0.00  0.03  0.00
  YS02001625YS02001629    1.00   0.13  0.04  0.00  0.20  0.00  0.63  0.00  0.00  0.00
  YS02001629YS02163301    1.00   0.15  0.01  0.00  0.84  0.00  0.00  0.00  0.00  0.00
  YS02001633YS02163601    1.00   0.00  0.01  0.00  0.99  0.00  0.00  0.00  0.14  0.00
  YS02001641YS02001644    1.00   0.00  0.01  0.00  0.99  0.00  0.00  0.00  0.00  0.00
  YS02001644YS02001647    1.00   0.00  0.16  0.00  0.84  0.00  0.00  0.00  0.00  0.00
  YS02001647YS02001649    1.00   0.00  0.16  0.00  0.54  0.30  0.00  0.00  0.56  0.00
  YS02001649YS02001757    1.00   0.00  0.00  0.00  0.68  0.32  0.00  0.00  0.47  0.00
  YS02001652YS02001649    1.00   0.00  0.00  0.00  0.97  0.03  0.00  0.00  0.71  0.00
  YS02001655YS02001652    1.00   0.00  0.00  0.00  0.22  0.01  0.00  0.77  0.06  0.00
  YS02001658YS02001655    1.00   0.00  0.14  0.00  0.67  0.19  0.00  0.00  0.68  0.00
  YS02001661YS02001658    1.00   0.14  0.00  0.00  0.50  0.36  0.00  0.00  0.73  0.00
  YS02001664YS02001661    1.00   0.13  0.00  0.00  0.71  0.16  0.00  0.00  0.84  0.00
  YS02001745YS02001748    1.00   0.00  0.00  0.00  0.11  0.01  0.00  0.88  0.07  0.00
  YS02001748YS02001751    1.00   0.00  0.00  0.00  0.83  0.17  0.00  0.00  0.79  0.00
  YS02001751YS02001754    1.00   0.00  0.00  0.00  0.18  0.01  0.00  0.82  0.03  0.00
  YS02001754YS02001757    1.00   0.00  0.00  0.00  1.00  0.00  0.00  0.00  0.81  0.00
  YS02001757CaochengTiaoxuchi    1.00   0.00  0.00  0.00  0.85  0.15  0.00  0.00  0.74  0.00
  YS02001759YS02001757    1.00   0.00  0.00  0.00  0.99  0.01  0.00  0.00  0.61  0.00
  YS02001762YS02001759    1.00   0.00  0.00  0.00  1.00  0.00  0.00  0.00  0.04  0.00
  YS02001765YS02001762    1.00   0.00  0.00  0.00  1.00  0.00  0.00  0.00  0.71  0.00
  YS02001767YS02001765    1.00   0.00  0.00  0.00  1.00  0.00  0.00  0.00  0.00  0.00
  YS02001770YS02001767    1.00   0.00  0.00  0.00  1.00  0.00  0.00  0.00  0.00  0.00
  YS02001774YS02001770    1.00   0.00  0.13  0.00  0.71  0.00  0.15  0.00  0.02  0.00
  YS02001779YS02001774    1.00   0.00  0.00  0.00  1.00  0.00  0.00  0.00  0.76  0.00
  YS02001783YS02001784    1.00   0.00  0.17  0.00  0.83  0.00  0.00  0.00  0.54  0.00
  YS02001784YS02001785    1.00   0.00  0.00  0.00  1.00  0.00  0.00  0.00  0.15  0.00
  YS02001786YS02001788    1.00   0.00  0.00  0.00  0.79  0.21  0.00  0.00  0.00  0.00
  YS02001788YS02001790    1.00   0.00  0.00  0.00  0.21  0.79  0.00  0.00  0.78  0.00
  YS02001790YS02001791    1.00   0.00  0.00  0.00  0.01  0.99  0.00  0.00  0.16  0.00
  YS02001791YS02001793    1.00   0.00  0.00  0.00  0.00  1.00  0.00  0.00  0.01  0.00
  YS02001793JiankangQianchi    1.00   0.00  0.00  0.00  0.62  0.38  0.00  0.00  0.93  0.00
  YS02001882YS02001884    1.00   0.15  0.01  0.00  0.85  0.00  0.00  0.00  0.00  0.00
  YS02001884YS02001887    1.00   0.06  0.05  0.00  0.89  0.00  0.00  0.00  0.00  0.00
  YS02001887YS02001890    1.00   0.00  0.00  0.00  0.97  0.00  0.03  0.00  0.00  0.00
  YS02001890YS02001895    1.00   0.00  0.15  0.00  0.85  0.00  0.00  0.00  0.00  0.00
  YS02001895YS02001898    1.00   0.15  0.00  0.00  0.83  0.00  0.01  0.00  0.00  0.00
  YS02001898YS02001901    1.00   0.16  0.00  0.00  0.84  0.00  0.00  0.00  0.00  0.00
  YS02001901YS02001904    1.00   0.16  0.00  0.00  0.84  0.00  0.00  0.00  0.00  0.00
  YS02001904YS02001907    1.00   0.00  0.15  0.00  0.84  0.00  0.00  0.00  0.00  0.00
  YS02001907YS02006553    1.00   0.00  0.02  0.00  0.98  0.00  0.00  0.00  0.00  0.00
  YS02001910YS02001907    1.00   0.00  0.00  0.00  0.97  0.00  0.00  0.03  0.12  0.00
  YS02001915YS02001910    1.00   0.00  0.00  0.00  0.97  0.03  0.00  0.00  0.13  0.00
  YS02001918YS02001915    1.00   0.00  0.01  0.00  0.98  0.02  0.00  0.00  0.71  0.00
  YS02001920YS02001918    1.00   0.00  0.01  0.00  0.99  0.00  0.00  0.00  0.00  0.00
  YS02001923YS02001920    1.00   0.00  0.00  0.00  1.00  0.00  0.00  0.00  0.89  0.00
  YS02001926YS02001923    1.00   0.00  0.07  0.00  0.09  0.00  0.84  0.00  0.00  0.00
  YS02001929YS02001926    1.00   0.00  0.13  0.00  0.87  0.00  0.00  0.00  0.79  0.00
  YS02006553YS02006556    1.00   0.01  0.00  0.00  0.99  0.00  0.00  0.00  0.03  0.00
  YS02006556YS02006558    1.00   0.00  0.00  0.00  1.00  0.00  0.00  0.00  0.00  0.00
  YS02006558YS02006561    1.00   0.17  0.00  0.00  0.08  0.75  0.00  0.00  0.18  0.00
  YS02006561YS02001783    1.00   0.17  0.00  0.00  0.12  0.72  0.00  0.00  0.66  0.00
  YS02163301YS02001633    1.00   0.00  0.15  0.00  0.85  0.00  0.00  0.00  0.00  0.00
  YS02163601YS02164001    1.00   0.00  0.08  0.00  0.92  0.00  0.00  0.00  0.00  0.00
  YS02164001YS02001641    1.00   0.01  0.08  0.00  0.92  0.00  0.00  0.00  0.05  0.00
  
  
  *************************
  Conduit Surcharge Summary
  *************************
  
  ----------------------------------------------------------------------------
                                                           Hours        Hours 
                         --------- Hours Full --------   Above Full   Capacity
  Conduit                Both Ends  Upstream  Dnstream   Normal Flow   Limited
  ----------------------------------------------------------------------------
  WS02003072WS02003073        0.01      0.01      0.01      1.89         0.01
  WS02004404WS02004405        0.01      0.01      0.01      2.76         0.01
  WS02004405WS02004406        0.01      0.01      0.01      1.28         0.01
  WS02006109WS02006110        0.58      0.58      2.21      0.92         0.01
  WS02006110WS02006113        0.01      0.01      2.19      0.01         0.01
  WS02006111WS02006112        0.01      0.01      2.24      0.01         0.01
  WS02006112WS02006115        0.01      0.01      1.47      0.01         0.01
  WS02006228WS02006109        2.14      2.21      2.14      2.46         2.14
  WS02006229WS02006228        2.12      2.15      2.12      2.35         2.10
  WS02006230WS02006229        2.26      2.30      2.26      3.11         2.26
  WS02006231WS02006230        0.66      0.66      1.53      2.83         0.01
  WS02006232WS02006231        1.28      1.28      2.22      1.35         0.01
  WS02006234WS02006232        1.91      1.91      2.22      1.30         1.17
  WS02006235WS02006234        1.65      1.71      1.89      2.76         0.12
  WS02006238WS02006235        1.97      1.97      2.24      0.01         0.06
  WS02006239WS02006238        2.09      2.22      2.10      2.31         1.73
  WS02006240WS02006239        2.06      2.16      2.07      2.31         1.59
  WS02006242WS02006240        2.14      2.14      2.28      2.39         0.03
  WS02006243WS02006242        2.17      2.17      2.24      0.01         0.30
  WS02006245WS02006243        2.15      2.16      2.15      1.78         1.22
  WS02006247WS02006245        2.15      2.18      2.15      2.43         2.01
  WS02006248WS02006247        2.15      2.15      2.17      0.01         0.34
  WS02006249WS02006248        2.14      2.14      2.16      2.43         0.01
  WS02006251WS02006249        2.16      2.16      2.16      2.39         1.94
  WS02006252WS02006251        2.43      2.43      2.43      2.43         0.01
  WS02006256WS02006235        2.57      2.80      5.46      1.84         0.02
  YS02001580YS02001583        0.90      0.90      0.93      0.01         0.01
  YS02001583YS02001586        0.90      0.90      1.03      0.01         0.01
  YS02001586YS02001590        1.03      1.03      1.11      0.01         0.01
  YS02001590YS02001593        1.12      1.12      1.13      1.23         0.01
  YS02001593YS02001596        1.12      1.12      1.23      0.01         0.01
  YS02001596YS02001600        1.29      1.29      1.43      0.01         0.01
  YS02001600YS02001601        1.52      1.52      1.74      0.01         0.01
  YS02001601YS02001602        1.66      1.66      1.77      1.47         0.01
  YS02001602YS02001605        1.63      1.63      1.66      2.41         0.01
  YS02001605YS02001607        1.59      1.63      1.59      1.71         1.59
  YS02001607YS02001610        1.05      1.05      1.08      0.01         0.01
  YS02001610YS02001613        1.04      1.04      1.08      0.01         0.01
  YS02001613YS02001616        0.99      0.99      1.04      0.01         0.01
  YS02001616YS02001619        0.98      0.98      0.99      0.09         0.10
  YS02001619YS02001622        0.97      0.98      0.97      1.17         0.94
  YS02001622YS02001625        0.97      0.97      1.18      0.01         0.01
  YS02001625YS02001629        0.89      0.89      1.18      0.01         0.01
  YS02001629YS02163301        1.17      1.17      1.17      0.38         0.36
  YS02001633YS02163601        1.19      1.19      1.23      0.62         0.60
  YS02001641YS02001644        1.07      1.10      1.07      1.78         1.06
  YS02001644YS02001647        0.79      0.79      1.07      0.04         0.01
  YS02001647YS02001649        0.79      0.79      0.94      0.01         0.01
  YS02001649YS02001757        0.94      0.94      1.00      0.49         0.44
  YS02001652YS02001649        0.71      0.71      0.94      0.01         0.01
  YS02001655YS02001652        0.44      0.44      0.67      0.01         0.01
  YS02001658YS02001655        0.27      0.27      0.44      0.01         0.01
  YS02001661YS02001658        0.12      0.12      0.27      0.01         0.01
  YS02001664YS02001661        0.01      0.01      0.15      0.01         0.01
  YS02001745YS02001748        0.01      0.01      0.17      0.01         0.01
  YS02001748YS02001751        0.24      0.24      0.29      0.01         0.01
  YS02001751YS02001754        0.29      0.29      0.47      0.01         0.01
  YS02001754YS02001757        0.54      0.54      1.00      0.01         0.01
  YS02001757CaochengTiaoxuchi        0.68      1.00      1.24      0.61         0.27
  YS02001759YS02001757        0.88      0.88      1.00      0.14         0.14
  YS02001762YS02001759        0.82      0.82      0.88      0.01         0.04
  YS02001765YS02001762        0.76      0.76      0.82      0.01         0.01
  YS02001767YS02001765        0.71      0.71      0.76      0.03         0.06
  YS02001770YS02001767        0.71      0.72      0.71      0.75         0.59
  YS02001774YS02001770        0.68      0.68      0.80      0.01         0.01
  YS02001779YS02001774        0.49      0.49      0.80      0.01         0.01
  YS02001783YS02001784        0.73      0.75      0.73      0.91         0.73
  YS02001784YS02001785        0.61      0.73      0.61      1.22         0.61
  YS02001786YS02001788        0.01      0.61      0.01      1.05         0.01
  YS02001790YS02001791        0.01      0.01      0.01      0.71         0.01
  YS02001882YS02001884        0.69      0.69      0.70      0.01         0.01
  YS02001884YS02001887        0.72      0.72      0.74      0.01         0.01
  YS02001887YS02001890        0.75      0.75      0.77      0.22         0.01
  YS02001890YS02001895        0.68      0.68      0.79      0.01         0.01
  YS02001895YS02001898        0.67      0.67      0.68      0.01         0.01
  YS02001898YS02001901        0.68      0.68      0.73      0.01         0.01
  YS02001901YS02001904        0.72      0.72      0.73      0.01         0.01
  YS02001904YS02001907        0.72      0.72      1.01      0.01         0.01
  YS02001907YS02006553        1.24      1.24      1.34      0.01         0.01
  YS02001910YS02001907        0.79      0.79      0.97      0.07         0.07
  YS02001915YS02001910        0.68      0.68      0.79      0.01         0.01
  YS02001918YS02001915        0.59      0.59      0.68      0.01         0.01
  YS02001920YS02001918        0.59      0.59      0.61      0.01         0.01
  YS02001923YS02001920        0.54      0.54      0.61      0.01         0.01
  YS02001926YS02001923        0.23      0.23      0.26      0.01         0.01
  YS02001929YS02001926        0.10      0.10      0.26      0.01         0.01
  YS02006553YS02006556        0.88      0.88      1.01      0.01         0.01
  YS02006556YS02006558        0.94      0.94      1.04      0.01         0.01
  YS02006558YS02006561        0.63      0.87      0.63      1.17         0.63
  YS02006561YS02001783        0.55      0.55      0.75      0.01         0.01
  YS02163301YS02001633        1.17      1.17      1.21      0.01         0.01
  YS02163601YS02164001        1.11      1.11      1.23      0.18         0.01
  YS02164001YS02001641        1.10      1.11      1.10      0.99         0.85
  
  
  ***************
  Pumping Summary
  ***************
  
  ---------------------------------------------------------------------------------------------------------
                                                  Min       Avg       Max     Total     Power    % Time Off
                        Percent   Number of      Flow      Flow      Flow    Volume     Usage    Pump Curve
  Pump                 Utilized   Start-Ups       LPS       LPS       LPS  10^6 ltr     Kw-hr    Low   High
  ---------------------------------------------------------------------------------------------------------
  CC-R1                   30.34           2      0.00    683.00    683.00     5.907    103.49    0.0   48.3
  CC-R2                   30.34           2      0.00    683.00    683.00     5.907    103.49    0.0   48.3
  CC-S1                   30.74           2      0.00    200.00    200.00     1.752     11.71    0.0    9.1
  CC-S2                   30.74           2      0.00    200.00    200.00     1.752     11.71    0.0    9.1
  JK-R1                    5.79          75      0.00   1000.00   1000.00     1.650      5.17    0.0    0.0
  JK-R2                    5.79          75      0.00   1000.00   1000.00     1.650      5.17    0.0    0.0
  JK-S                    22.65         107      0.00    300.00    300.00     1.937     43.05    0.0    0.0
  

  Analysis begun on:  Tue Apr 22 10:18:23 2025
  Analysis ended on:  Tue Apr 22 10:18:25 2025
  Total elapsed time: 00:00:02