
  EPA STORM WATER MANAGEMENT MODEL - VERSION 5.2 (Build 5.2.4)
  PYSWMM TOOLKIT API - VERSION v1.0 (2023-11-27)
  ------------------------------------------------------------

  WARNING 04: minimum elevation drop used for Conduit WS02004404WS02004405
  WARNING 03: negative offset ignored for Link YS02001904YS02001907
  
  ****************
  Analysis Options
  ****************
  Flow Units ............... LPS
  Process Models:
    Rainfall/Runoff ........ YES
    RDII ................... NO
    Snowmelt ............... NO
    Groundwater ............ NO
    Flow Routing ........... YES
    Ponding Allowed ........ NO
    Water Quality .......... NO
  Infiltration Method ...... HORTON
  Flow Routing Method ...... DYNWAVE
  Surcharge Method ......... EXTRAN
  Starting Date ............ 08/28/2015 08:00:00
  Ending Date .............. 08/28/2015 16:00:00
  Antecedent Dry Days ...... 8.0
  Report Time Step ......... 00:01:00
  Wet Time Step ............ 00:01:00
  Dry Time Step ............ 00:01:00
  Routing Time Step ........ 30.00 sec
  Variable Time Step ....... YES
  Maximum Trials ........... 8
  Number of Threads ........ 4
  Head Tolerance ........... 0.001500 m
  
  
  **************************        Volume         Depth
  Runoff Quantity Continuity     hectare-m            mm
  **************************     ---------       -------
  Total Precipitation ......         2.789        84.091
  Evaporation Loss .........         0.000         0.000
  Infiltration Loss ........         0.101         3.054
  Surface Runoff ...........         2.656        80.063
  Final Storage ............         0.033         0.997
  Continuity Error (%) .....        -0.027
  
  
  **************************        Volume        Volume
  Flow Routing Continuity        hectare-m      10^6 ltr
  **************************     ---------     ---------
  Dry Weather Inflow .......         0.025         0.248
  Wet Weather Inflow .......         2.655        26.550
  Groundwater Inflow .......         0.000         0.000
  RDII Inflow ..............         0.000         0.000
  External Inflow ..........         0.083         0.825
  External Outflow .........         1.966        19.664
  Flooding Loss ............         0.967         9.669
  Evaporation Loss .........         0.000         0.000
  Exfiltration Loss ........         0.000         0.000
  Initial Stored Volume ....         0.243         2.431
  Final Stored Volume ......         0.085         0.850
  Continuity Error (%) .....        -0.429
  
  
  *************************
  Highest Continuity Errors
  *************************
  Node YS02001583 (-15.20%)
  Node YS02001884 (4.85%)
  Node WS02006256 (-3.45%)
  
  
  ***************************
  Time-Step Critical Elements
  ***************************
  Link WS02006238WS02006235 (28.52%)
  Link WS02004404WS02004405 (23.38%)
  Link WS02003066WSF200 (10.97%)
  Link YS02001791YS02001793 (7.20%)
  Link YS02006556YS02006558 (4.94%)
  
  
  ********************************
  Highest Flow Instability Indexes
  ********************************
  Link WS02006113WS02006111 (38)
  Link WS02006252WS02006251 (28)
  Link WS02006238WS02006235 (22)
  Link YS02001602YS02001605 (22)
  Link YS02001607YS02001610 (21)
  
  
  *********************************
  Most Frequent Nonconverging Nodes
  *********************************
  Node CC-1 (34.00%)
  Node CC-2 (34.00%)
  Node JK-1 (34.00%)
  Node JK-2 (34.00%)
  Node WSC (34.00%)
  
  
  *************************
  Routing Time Step Summary
  *************************
  Minimum Time Step           :     0.01 sec
  Average Time Step           :     2.83 sec
  Maximum Time Step           :     6.43 sec
  % of Time in Steady State   :     0.00
  Average Iterations per Step :     4.41
  % of Steps Not Converging   :    34.00
  Time Step Frequencies       :
     30.000 - 13.228 sec      :     0.00 %
     13.228 -  5.833 sec      :    13.83 %
      5.833 -  2.572 sec      :    29.49 %
      2.572 -  1.134 sec      :    38.83 %
      1.134 -  0.500 sec      :    17.85 %
  
  
  ***************************
  Subcatchment Runoff Summary
  ***************************
  
  ------------------------------------------------------------------------------------------------------------------------------
                            Total      Total      Total      Total     Imperv       Perv      Total       Total     Peak  Runoff
                           Precip      Runon       Evap      Infil     Runoff     Runoff     Runoff      Runoff   Runoff   Coeff
  Subcatchment                 mm         mm         mm         mm         mm         mm         mm    10^6 ltr      LPS
  ------------------------------------------------------------------------------------------------------------------------------
  sub60                     84.09       0.00       0.00       1.85      72.81       8.24      81.05        1.06   682.87   0.964
  sub61                     84.09       0.00       0.00       2.68      68.67      11.62      80.29        1.47   943.84   0.955
  sub62                     84.09       0.00       0.00       1.24      76.08       5.50      81.58        2.24  1327.97   0.970
  sub63                     84.09       0.00       0.00       4.92      58.74      19.47      78.21        1.78  1044.66   0.930
  sub64                     84.09       0.00       0.00       2.49      70.28      10.13      80.40        1.93  1073.49   0.956
  sub65                     84.09       0.00       0.00       2.16      71.91       8.78      80.69        2.22  1197.95   0.960
  sub66                     84.09       0.00       0.00       6.03      58.63      18.36      76.99        3.59  1546.12   0.916
  sub67                     84.09       0.00       0.00       1.19      76.13       5.54      81.67        1.52  1038.30   0.971
  sub68                     84.09       0.00       0.00       2.22      71.14       9.55      80.69        2.22  1363.13   0.960
  sub69                     84.09       0.00       0.00       1.98      71.37      10.64      82.01        3.04  1599.51   0.975
  sub70                     84.09       0.00       0.00       6.52      55.34      22.08      77.41        2.24   870.02   0.921
  sub71                     84.09       0.00       0.00       1.27      76.04       5.46      81.51        2.13  1163.50   0.969
  sub72                     84.09       0.00       0.00       1.12      76.81       4.76      81.57        1.12   558.92   0.970
  
  
  ******************
  Node Depth Summary
  ******************
  
  ---------------------------------------------------------------------------------
                                 Average  Maximum  Maximum  Time of Max    Reported
                                   Depth    Depth      HGL   Occurrence   Max Depth
  Node                 Type       Meters   Meters   Meters  days hr:min      Meters
  ---------------------------------------------------------------------------------
  WS02003060           JUNCTION     0.23     0.38     5.32     0  03:08        0.38
  WS02003066           JUNCTION     0.19     0.30     5.85     0  03:07        0.30
  WS02003067           JUNCTION     0.48     0.70     6.02     0  03:07        0.70
  WS02003069           JUNCTION     0.25     0.43     5.01     0  03:08        0.43
  WS02003072           JUNCTION     0.31     0.50     4.87     0  03:09        0.50
  WS02003073           JUNCTION     0.17     0.30     4.36     0  03:09        0.30
  WS02004401           JUNCTION     0.59     0.85     6.85     0  03:05        0.85
  WS02004402           JUNCTION     0.62     0.88     6.84     0  03:05        0.88
  WS02004403           JUNCTION     0.64     0.89     6.82     0  03:05        0.89
  WS02004404           JUNCTION     0.71     0.96     6.81     0  03:05        0.96
  WS02004405           JUNCTION     0.71     0.96     6.81     0  03:05        0.96
  WS02004406           JUNCTION     0.72     0.96     6.79     0  03:05        0.96
  WS02004407           JUNCTION     0.17     0.30     6.61     0  03:06        0.30
  WS02004409           JUNCTION     0.39     0.67     6.44     0  03:06        0.67
  WS02004410           JUNCTION     0.41     0.68     6.40     0  03:06        0.68
  WS02004411           JUNCTION     0.43     0.69     6.37     0  03:06        0.69
  WS02004412           JUNCTION     0.45     0.70     6.34     0  03:07        0.70
  WS02004413           JUNCTION     0.60     0.86     6.33     0  03:07        0.86
  WS02006109           JUNCTION     0.68     1.20     7.82     0  02:30        1.13
  WS02006110           JUNCTION     0.68     1.27     7.85     0  02:30        1.06
  WS02006111           JUNCTION     0.18     0.29     6.99     0  03:04        0.29
  WS02006112           JUNCTION     0.76     1.11     6.99     0  03:13        1.06
  WS02006113           JUNCTION     0.28     0.46     7.35     0  02:52        0.46
  WS02006115           JUNCTION     0.48     0.75     6.89     0  03:04        0.75
  WS02006116           JUNCTION     0.57     0.83     6.87     0  03:04        0.83
  WS02006228           JUNCTION     0.68     1.32     7.97     0  02:27        1.15
  WS02006229           JUNCTION     0.66     1.38     8.07     0  02:27        1.18
  WS02006230           JUNCTION     0.68     1.64     8.38     0  02:27        1.24
  WS02006231           JUNCTION     0.48     2.24     9.36     0  01:42        1.21
  WS02006232           JUNCTION     0.62     2.07     9.11     0  01:42        1.87
  WS02006234           JUNCTION     0.56     1.96     9.12     0  01:41        1.96
  WS02006235           JUNCTION     0.60     2.00     9.16     0  01:41        2.00
  WS02006238           JUNCTION     0.63     2.15     9.29     0  01:49        2.15
  WS02006239           JUNCTION     0.60     2.03     9.24     0  01:49        2.03
  WS02006240           JUNCTION     0.57     1.96     9.25     0  01:49        1.96
  WS02006242           JUNCTION     0.64     1.55     8.82     0  01:41        1.55
  WS02006243           JUNCTION     0.56     1.48     8.90     0  01:49        1.48
  WS02006245           JUNCTION     0.56     1.52     9.00     0  01:49        1.52
  WS02006247           JUNCTION     0.58     1.43     8.93     0  01:49        1.43
  WS02006248           JUNCTION     0.55     1.10     8.69     0  01:37        1.10
  WS02006249           JUNCTION     0.57     1.09     8.69     0  01:37        1.09
  WS02006251           JUNCTION     0.57     1.33     9.00     0  03:24        1.23
  WS02006252           JUNCTION     0.37     1.50     9.74     0  00:00        0.79
  WS02006256           JUNCTION     1.19     2.35     9.28     0  00:00        2.35
  WSF200               JUNCTION     0.16     0.29     5.52     0  03:07        0.29
  YS02001580           JUNCTION     0.18     1.05     9.59     0  01:33        0.80
  YS02001583           JUNCTION     0.21     1.14     9.64     0  01:33        0.82
  YS02001586           JUNCTION     0.32     1.13     9.30     0  01:33        1.13
  YS02001590           JUNCTION     0.43     1.40     9.26     0  01:32        1.40
  YS02001593           JUNCTION     0.37     1.38     9.24     0  01:33        1.29
  YS02001596           JUNCTION     0.50     1.72     9.14     0  01:32        1.66
  YS02001600           JUNCTION     0.60     1.87     9.00     0  01:32        1.87
  YS02001601           JUNCTION     0.77     2.06     8.90     0  01:32        2.06
  YS02001602           JUNCTION     0.67     1.87     8.77     0  01:33        1.87
  YS02001605           JUNCTION     0.62     1.78     8.68     0  01:33        1.78
  YS02001607           JUNCTION     0.57     1.68     8.53     0  01:51        1.68
  YS02001610           JUNCTION     0.61     1.68     8.48     0  01:33        1.68
  YS02001613           JUNCTION     0.58     1.67     8.51     0  01:33        1.66
  YS02001616           JUNCTION     0.51     1.61     8.52     0  01:33        1.61
  YS02001619           JUNCTION     0.49     1.61     8.54     0  01:33        1.61
  YS02001622           JUNCTION     0.48     1.62     8.52     0  01:33        1.59
  YS02001625           JUNCTION     0.72     1.78     8.38     0  01:33        1.78
  YS02001629           JUNCTION     0.62     1.85     8.40     0  01:33        1.85
  YS02001633           JUNCTION     0.69     2.08     8.53     0  01:51        2.04
  YS02001641           JUNCTION     0.64     2.10     8.54     0  01:51        1.95
  YS02001644           JUNCTION     0.63     1.92     8.35     0  01:35        1.92
  YS02001647           JUNCTION     0.42     1.81     8.42     0  01:36        1.78
  YS02001649           JUNCTION     0.47     2.05     8.44     0  01:36        2.05
  YS02001652           JUNCTION     0.35     2.16     8.76     0  01:36        2.13
  YS02001655           JUNCTION     0.27     2.20     9.05     0  01:36        2.20
  YS02001658           JUNCTION     0.19     2.30     9.44     0  01:36        1.87
  YS02001661           JUNCTION     0.19     2.46     9.86     0  01:36        1.61
  YS02001664           JUNCTION     0.09     2.10    10.03     0  01:36        1.19
  YS02001745           JUNCTION     0.09     2.35     9.87     0  01:36        0.88
  YS02001748           JUNCTION     0.17     2.27     9.35     0  01:36        1.31
  YS02001751           JUNCTION     0.22     2.20     9.08     0  01:36        1.50
  YS02001754           JUNCTION     0.30     2.20     8.81     0  01:36        1.75
  YS02001757           JUNCTION     0.47     2.21     8.47     0  01:36        2.08
  YS02001759           JUNCTION     0.42     2.21     8.57     0  01:36        2.10
  YS02001762           JUNCTION     0.41     2.15     8.55     0  01:36        2.06
  YS02001765           JUNCTION     0.39     2.10     8.55     0  01:36        2.01
  YS02001767           JUNCTION     0.39     2.03     8.52     0  01:35        1.96
  YS02001770           JUNCTION     0.40     1.95     8.44     0  01:35        1.95
  YS02001774           JUNCTION     0.46     2.05     8.47     0  01:35        1.99
  YS02001779           JUNCTION     0.29     1.68     8.37     0  01:35        1.68
  YS02001783           JUNCTION     0.35     1.54     7.68     0  01:35        1.54
  YS02001784           JUNCTION     0.35     1.31     7.37     0  01:35        1.31
  YS02001786           JUNCTION     0.29     1.10     7.13     0  01:34        0.88
  YS02001788           JUNCTION     0.21     0.62     6.60     0  01:35        0.62
  YS02001790           JUNCTION     0.25     0.73     6.37     0  01:42        0.71
  YS02001791           JUNCTION     0.15     0.44     5.91     0  01:40        0.44
  YS02001793           JUNCTION     0.08     0.25     5.08     0  01:43        0.23
  YS02001882           JUNCTION     0.43     1.83     8.55     0  01:34        1.68
  YS02001884           JUNCTION     0.52     1.91     8.53     0  01:34        1.78
  YS02001887           JUNCTION     0.59     1.91     8.45     0  01:34        1.86
  YS02001890           JUNCTION     0.62     1.81     8.32     0  01:34        1.81
  YS02001895           JUNCTION     0.40     1.75     8.50     0  01:34        1.57
  YS02001898           JUNCTION     0.41     1.64     8.37     0  01:51        1.58
  YS02001901           JUNCTION     0.51     1.72     8.33     0  01:51        1.70
  YS02001904           JUNCTION     0.50     1.67     8.30     0  01:47        1.67
  YS02001907           JUNCTION     0.80     1.96     8.25     0  01:34        1.96
  YS02001910           JUNCTION     0.62     2.00     8.51     0  01:34        1.96
  YS02001915           JUNCTION     0.45     1.98     8.69     0  01:34        1.93
  YS02001918           JUNCTION     0.28     1.81     8.88     0  01:34        1.81
  YS02001920           JUNCTION     0.36     2.14     9.15     0  01:35        1.82
  YS02001923           JUNCTION     0.22     2.03     9.29     0  01:35        1.53
  YS02001926           JUNCTION     0.24     1.90     9.35     0  01:35        1.33
  YS02001929           JUNCTION     0.15     1.78     9.47     0  01:35        1.09
  YS02006553           JUNCTION     0.80     2.05     8.33     0  01:35        2.01
  YS02006556           JUNCTION     0.77     2.11     8.42     0  01:35        2.05
  YS02006558           JUNCTION     0.81     2.18     8.45     0  01:35        2.16
  YS02006561           JUNCTION     0.22     1.30     7.96     0  01:35        1.30
  YS02163301           JUNCTION     0.64     1.98     8.50     0  01:51        1.92
  YS02163601           JUNCTION     0.71     2.08     8.48     0  01:51        2.05
  YS02164001           JUNCTION     0.64     2.10     8.56     0  01:51        1.96
  CC-1                 OUTFALL      0.00     0.00     0.00     0  00:00        0.00
  CC-2                 OUTFALL      0.00     0.00     0.00     0  00:00        0.00
  JK-1                 OUTFALL      0.00     0.00     0.00     0  00:00        0.00
  JK-2                 OUTFALL      0.00     0.00     0.00     0  00:00        0.00
  WSC                  OUTFALL      0.17     0.30     0.97     0  03:10        0.30
  CC-storage           STORAGE      0.54     1.34     6.84     0  02:25        1.34
  JK-storage           STORAGE      0.21     2.99     3.79     0  00:00        0.68
  
  
  *******************
  Node Inflow Summary
  *******************
  
  -------------------------------------------------------------------------------------------------
                                  Maximum  Maximum                  Lateral       Total        Flow
                                  Lateral    Total  Time of Max      Inflow      Inflow     Balance
                                   Inflow   Inflow   Occurrence      Volume      Volume       Error
  Node                 Type           LPS      LPS  days hr:min    10^6 ltr    10^6 ltr     Percent
  -------------------------------------------------------------------------------------------------
  WS02003060           JUNCTION     16.53   553.45     0  03:08       0.471        5.29       0.187
  WS02003066           JUNCTION      0.00   536.76     0  03:07           0        4.83       0.083
  WS02003067           JUNCTION      0.00   536.73     0  03:07           0        4.84       0.167
  WS02003069           JUNCTION      0.32   553.57     0  03:08     0.00912        5.29       0.315
  WS02003072           JUNCTION      0.00   553.33     0  03:09           0        5.28       0.442
  WS02003073           JUNCTION      1.82   555.05     0  03:09      0.0519         5.3       0.475
  WS02004401           JUNCTION      0.00   539.84     0  03:05           0        5.03       0.325
  WS02004402           JUNCTION      0.00   538.88     0  03:05           0        5.01       0.316
  WS02004403           JUNCTION      0.00   538.77     0  03:05           0        4.99       0.297
  WS02004404           JUNCTION      0.16   538.37     0  03:05     0.00462        4.98       0.243
  WS02004405           JUNCTION      0.04   538.27     0  03:05     0.00109        4.97       0.337
  WS02004406           JUNCTION      0.00   538.48     0  03:05           0        4.96       0.576
  WS02004407           JUNCTION      0.00   537.90     0  03:05           0        4.93       0.097
  WS02004409           JUNCTION      0.00   537.60     0  03:06           0        4.92       0.243
  WS02004410           JUNCTION      0.00   537.29     0  03:06           0        4.91       0.296
  WS02004411           JUNCTION      0.00   537.11     0  03:06           0         4.9       0.314
  WS02004412           JUNCTION      0.00   536.97     0  03:06           0        4.88       0.351
  WS02004413           JUNCTION      0.00   536.96     0  03:07           0        4.86       0.552
  WS02006109           JUNCTION      1.23   560.44     0  02:30      0.0351         5.1       0.222
  WS02006110           JUNCTION      0.00   561.32     0  01:51           0        5.09       0.207
  WS02006111           JUNCTION      0.00   561.26     0  02:44           0        5.08       0.038
  WS02006112           JUNCTION      0.00   543.38     0  03:04           0        5.07       0.538
  WS02006113           JUNCTION      0.00   570.88     0  01:39           0        5.08       0.094
  WS02006115           JUNCTION      0.00   548.41     0  02:36           0        5.05       0.277
  WS02006116           JUNCTION      0.00   541.25     0  03:04           0        5.03       0.135
  WS02006228           JUNCTION      0.00   558.87     0  02:30           0        5.07       0.094
  WS02006229           JUNCTION      0.00   558.34     0  02:30           0        5.08       0.180
  WS02006230           JUNCTION     10.28   603.52     0  02:35       0.293        5.08       0.040
  WS02006231           JUNCTION      0.00   598.21     0  03:24           0        4.79      -0.037
  WS02006232           JUNCTION      0.00   596.15     0  03:17           0        4.81       0.433
  WS02006234           JUNCTION      0.00   587.68     0  03:17           0        4.79      -0.518
  WS02006235           JUNCTION      0.00   679.59     0  01:35           0        4.94       0.468
  WS02006238           JUNCTION      0.00   423.56     0  02:45           0        3.68      -0.189
  WS02006239           JUNCTION      0.00   422.81     0  03:14           0         3.6      -0.106
  WS02006240           JUNCTION      0.00   420.30     0  03:14           0        3.54       0.028
  WS02006242           JUNCTION      0.00   421.15     0  03:14           0        3.51       0.041
  WS02006243           JUNCTION      0.00   420.48     0  03:18           0        3.49      -0.094
  WS02006245           JUNCTION      0.00   420.27     0  03:18           0         3.5       0.314
  WS02006247           JUNCTION      0.00   421.03     0  03:18           0         3.5       0.012
  WS02006248           JUNCTION      0.00   420.86     0  02:34           0        3.51       0.120
  WS02006249           JUNCTION      0.00   481.27     0  01:32           0         3.8       0.310
  WS02006251           JUNCTION      0.08   406.37     0  03:24     0.00219         3.8      -0.009
  WS02006252           JUNCTION      0.00   400.00     0  00:00           0         3.8      -0.018
  WS02006256           JUNCTION      0.00   358.82     0  01:32           0        1.95      -3.334
  WSF200               JUNCTION      0.00   536.80     0  03:07           0        4.83       0.060
  YS02001580           JUNCTION      0.00   161.80     0  01:33           0     0.00424       1.319
  YS02001583           JUNCTION      0.00   273.84     0  01:33           0      0.0143     -13.197
  YS02001586           JUNCTION    870.02   870.14     0  01:42        2.24        2.25       0.077
  YS02001590           JUNCTION      0.00   320.36     0  01:51           0        1.59      -0.039
  YS02001593           JUNCTION      0.00   322.60     0  01:51           0        1.59       0.022
  YS02001596           JUNCTION      0.00   318.07     0  01:51           0        1.59       0.009
  YS02001600           JUNCTION      0.00   318.05     0  01:51           0        1.59       0.008
  YS02001601           JUNCTION   1599.51  1916.97     0  01:40        3.04        4.62       0.018
  YS02001602           JUNCTION      0.00   575.76     0  01:33           0        2.62       0.018
  YS02001605           JUNCTION      0.00   575.61     0  01:33           0        2.48       0.016
  YS02001607           JUNCTION      0.00   575.80     0  01:33           0        2.48       0.083
  YS02001610           JUNCTION      0.00   874.71     0  01:42           0        2.93       0.089
  YS02001613           JUNCTION      0.00   538.90     0  01:42           0        2.32       0.086
  YS02001616           JUNCTION      0.00   538.50     0  01:42           0        2.32       0.014
  YS02001619           JUNCTION   1546.12  1546.12     0  01:42        3.59        5.45       0.001
  YS02001622           JUNCTION      0.00  1012.38     0  01:41           0        4.99      -0.012
  YS02001625           JUNCTION      0.00  1426.78     0  01:43           0        5.25       0.179
  YS02001629           JUNCTION      0.00   946.94     0  01:33           0        4.19       0.019
  YS02001633           JUNCTION   1198.15  1440.30     0  01:34        2.23        6.03       0.058
  YS02001641           JUNCTION      0.00  1439.76     0  01:34           0        5.65       0.056
  YS02001644           JUNCTION   1073.53  1957.21     0  01:34        1.93        7.58       0.045
  YS02001647           JUNCTION      0.00  1955.47     0  01:34           0        6.93       0.010
  YS02001649           JUNCTION      0.00  2236.81     0  01:35           0        8.71       0.012
  YS02001652           JUNCTION      0.00  1082.42     0  01:37           0        1.78      -0.112
  YS02001655           JUNCTION      0.15  1083.31     0  01:37     0.00439        1.78      -0.006
  YS02001658           JUNCTION      0.00  1082.92     0  01:37           0        1.77      -0.017
  YS02001661           JUNCTION      0.00  1081.92     0  01:37           0        1.78       0.012
  YS02001664           JUNCTION   1044.66  1044.66     0  01:39        1.77        1.77      -0.019
  YS02001745           JUNCTION    682.88   712.06     0  01:36        1.06        1.07       0.110
  YS02001748           JUNCTION      0.04   992.57     0  01:36     0.00128        1.07      -0.266
  YS02001751           JUNCTION      0.01   703.19     0  01:38    0.000313        1.08       0.052
  YS02001754           JUNCTION      0.26   703.52     0  01:38     0.00741        1.09      -0.164
  YS02001757           JUNCTION      0.00  3549.25     0  01:37           0        13.2       0.049
  YS02001759           JUNCTION    943.88  1578.45     0  01:36        1.47        3.37      -0.007
  YS02001762           JUNCTION      0.00   831.88     0  01:48           0         1.9      -0.000
  YS02001765           JUNCTION      0.00   831.82     0  01:48           0         1.9       0.022
  YS02001767           JUNCTION      0.54   831.72     0  01:48      0.0152         1.9      -0.011
  YS02001770           JUNCTION   1328.12  1328.12     0  01:39        2.24        2.28      -0.020
  YS02001774           JUNCTION      0.00   791.74     0  01:39           0        0.41       0.274
  YS02001779           JUNCTION      0.01   790.67     0  01:39    0.000142       0.366      -0.340
  YS02001783           JUNCTION      0.00  1172.08     0  01:37           0        4.78       0.005
  YS02001784           JUNCTION      1.06  1173.62     0  01:37      0.0302        4.81       0.011
  YS02001786           JUNCTION      0.06  1173.27     0  01:37      0.0016        4.81       0.015
  YS02001788           JUNCTION      0.07  1175.27     0  01:37     0.00202        4.81       0.006
  YS02001790           JUNCTION      0.15  1177.28     0  01:35     0.00442        4.81       0.013
  YS02001791           JUNCTION      0.00  1289.18     0  01:42           0        4.81      -0.018
  YS02001793           JUNCTION      0.00  1248.96     0  01:39           0        4.81      -0.013
  YS02001882           JUNCTION      0.00    94.31     0  01:34           0      0.0136       4.944
  YS02001884           JUNCTION      0.00   137.02     0  01:33           0      0.0503       5.098
  YS02001887           JUNCTION   1038.75  1039.51     0  01:38        1.53        1.57       0.290
  YS02001890           JUNCTION      0.00  1038.94     0  01:38           0        1.52       0.353
  YS02001895           JUNCTION      0.00   595.76     0  01:34           0         1.3       0.128
  YS02001898           JUNCTION      0.00   592.69     0  01:34           0         1.3      -0.003
  YS02001901           JUNCTION      0.00   596.62     0  01:34           0         1.3       0.265
  YS02001904           JUNCTION      0.00   597.50     0  01:34           0        1.31       0.230
  YS02001907           JUNCTION      0.00  2425.40     0  01:39           0        4.68       0.392
  YS02001910           JUNCTION      0.00  1727.65     0  01:40           0        3.33       0.221
  YS02001915           JUNCTION   1163.52  1727.88     0  01:40        2.13        3.38       0.035
  YS02001918           JUNCTION      0.00   700.03     0  01:34           0        1.29      -0.010
  YS02001920           JUNCTION      2.87   699.71     0  01:34      0.0818        1.26       0.036
  YS02001923           JUNCTION      0.04   954.71     0  01:34     0.00107        1.16      -0.051
  YS02001926           JUNCTION      0.05  1199.16     0  01:35     0.00149        1.15      -0.042
  YS02001929           JUNCTION    558.92   917.00     0  01:35        1.12        1.13      -0.095
  YS02006553           JUNCTION      0.00   796.10     0  02:06           0        2.68       0.447
  YS02006556           JUNCTION      0.00   796.92     0  02:06           0        2.69       0.317
  YS02006558           JUNCTION   1364.01  1364.01     0  01:39        2.25        4.86       0.077
  YS02006561           JUNCTION      0.00  1176.78     0  01:34           0        4.78      -0.004
  YS02163301           JUNCTION      0.00   902.90     0  02:12           0        4.18       0.038
  YS02163601           JUNCTION      0.11  1439.39     0  01:34     0.00313        5.65       0.092
  YS02164001           JUNCTION      0.00  1438.94     0  01:34           0        5.65       0.048
  CC-1                 OUTFALL       0.00   683.00     0  00:00           0        5.67       0.000
  CC-2                 OUTFALL       0.00   683.00     0  00:00           0        5.67       0.000
  JK-1                 OUTFALL       0.00  1000.00     0  00:00           0        1.52       0.000
  JK-2                 OUTFALL       0.00  1000.00     0  00:00           0        1.52       0.000
  WSC                  OUTFALL       0.00   554.97     0  03:10           0        5.28       0.000
  CC-storage           STORAGE       0.00  3548.73     0  01:37           0        15.4      -0.334
  JK-storage           STORAGE       0.00  1370.89     0  01:55           0        4.97      -0.411
  
  
  **********************
  Node Surcharge Summary
  **********************
  
  Surcharging occurs when water rises above the top of the highest conduit.
  ---------------------------------------------------------------------
                                               Max. Height   Min. Depth
                                   Hours       Above Crown    Below Rim
  Node                 Type      Surcharged         Meters       Meters
  ---------------------------------------------------------------------
  WS02006109           JUNCTION        2.10          0.378        1.442
  WS02006110           JUNCTION        0.67          0.356        1.494
  WS02006112           JUNCTION        1.47          0.111        1.569
  WS02006228           JUNCTION        2.07          0.490        1.710
  WS02006229           JUNCTION        2.12          0.579        1.871
  WS02006230           JUNCTION        0.75          0.557        1.013
  WS02006231           JUNCTION        1.30          1.530        0.000
  WS02006232           JUNCTION        2.25          1.368        0.112
  WS02006234           JUNCTION        1.66          1.240        0.000
  WS02006235           JUNCTION        1.90          1.290        0.000
  WS02006238           JUNCTION        2.10          1.430        0.000
  WS02006239           JUNCTION        2.05          1.290        0.000
  WS02006240           JUNCTION        2.13          1.251        0.139
  WS02006242           JUNCTION        2.30          0.820        0.000
  WS02006243           JUNCTION        2.15          0.770        0.000
  WS02006245           JUNCTION        2.15          0.807        0.043
  WS02006247           JUNCTION        2.19          0.719        0.041
  WS02006248           JUNCTION        2.13          0.380        0.000
  WS02006249           JUNCTION        2.17          0.390        0.000
  WS02006251           JUNCTION        1.63          0.296        0.884
  WS02006252           JUNCTION        2.64          1.100        0.000
  WS02006256           JUNCTION        5.99          2.050        0.000
  YS02001580           JUNCTION        0.83          0.450        0.000
  YS02001583           JUNCTION        0.84          0.500        0.000
  YS02001586           JUNCTION        0.95          0.510        0.000
  YS02001590           JUNCTION        1.04          0.750        0.000
  YS02001593           JUNCTION        1.04          0.759        0.081
  YS02001596           JUNCTION        1.15          0.987        0.083
  YS02001600           JUNCTION        1.35          1.190        0.000
  YS02001601           JUNCTION        1.70          1.440        0.000
  YS02001602           JUNCTION        1.63          1.270        0.000
  YS02001605           JUNCTION        1.59          1.180        0.000
  YS02001607           JUNCTION        0.96          0.680        0.000
  YS02001610           JUNCTION        1.00          0.680        0.000
  YS02001613           JUNCTION        0.95          0.674        0.026
  YS02001616           JUNCTION        0.91          0.610        0.000
  YS02001619           JUNCTION        0.89          0.610        0.000
  YS02001622           JUNCTION        0.88          0.620        0.000
  YS02001625           JUNCTION        1.10          0.780        0.000
  YS02001629           JUNCTION        0.78          0.470        0.000
  YS02001633           JUNCTION        1.10          1.060        0.000
  YS02001641           JUNCTION        1.00          1.100        0.000
  YS02001644           JUNCTION        0.95          0.920        0.000
  YS02001647           JUNCTION        0.69          0.811        0.089
  YS02001649           JUNCTION        0.81          1.050        0.000
  YS02001652           JUNCTION        0.57          1.130        0.000
  YS02001655           JUNCTION        0.36          1.200        0.000
  YS02001658           JUNCTION        0.24          1.300        0.000
  YS02001661           JUNCTION        0.09          1.390        0.000
  YS02001664           JUNCTION        0.01          1.104        0.206
  YS02001745           JUNCTION        0.01          1.350        0.000
  YS02001748           JUNCTION        0.14          1.190        0.000
  YS02001751           JUNCTION        0.26          1.200        0.000
  YS02001754           JUNCTION        0.39          1.150        0.000
  YS02001757           JUNCTION        0.86          1.210        0.000
  YS02001759           JUNCTION        0.73          1.210        0.000
  YS02001762           JUNCTION        0.69          1.150        0.000
  YS02001765           JUNCTION        0.64          1.100        0.000
  YS02001767           JUNCTION        0.59          1.030        0.000
  YS02001770           JUNCTION        0.56          0.920        0.000
  YS02001774           JUNCTION        0.67          1.050        0.000
  YS02001779           JUNCTION        0.41          0.680        0.000
  YS02001783           JUNCTION        0.70          0.744        0.856
  YS02001784           JUNCTION        0.67          0.505        0.985
  YS02001786           JUNCTION        0.56          0.298        1.132
  YS02001882           JUNCTION        0.63          0.830        0.000
  YS02001884           JUNCTION        0.64          0.852        0.018
  YS02001887           JUNCTION        0.69          0.864        0.086
  YS02001890           JUNCTION        0.70          0.760        0.000
  YS02001895           JUNCTION        0.62          0.750        0.000
  YS02001898           JUNCTION        0.62          0.606        0.134
  YS02001901           JUNCTION        0.67          0.723        0.147
  YS02001904           JUNCTION        0.66          0.669        0.181
  YS02001907           JUNCTION        0.91          0.950        0.000
  YS02001910           JUNCTION        0.73          1.002        0.098
  YS02001915           JUNCTION        0.63          0.976        0.024
  YS02001918           JUNCTION        0.54          0.810        0.000
  YS02001920           JUNCTION        0.56          1.140        0.000
  YS02001923           JUNCTION        0.20          0.820        0.000
  YS02001926           JUNCTION        0.23          0.900        0.000
  YS02001929           JUNCTION        0.03          0.780        0.000
  YS02006553           JUNCTION        0.95          1.049        0.141
  YS02006556           JUNCTION        0.82          1.074        0.276
  YS02006558           JUNCTION        0.81          1.080        0.320
  YS02006561           JUNCTION        0.50          0.497        0.653
  YS02163301           JUNCTION        1.08          0.985        0.045
  YS02163601           JUNCTION        1.14          1.080        0.000
  YS02164001           JUNCTION        1.01          1.100        0.000
  
  
  *********************
  Node Flooding Summary
  *********************
  
  Flooding refers to all water that overflows a node, whether it ponds or not.
  --------------------------------------------------------------------------
                                                             Total   Maximum
                                 Maximum   Time of Max       Flood    Ponded
                        Hours       Rate    Occurrence      Volume     Depth
  Node                 Flooded       LPS   days hr:min    10^6 ltr    Meters
  --------------------------------------------------------------------------
  WS02006231              0.01     64.90      0  01:42       0.000     0.000
  WS02006234              0.01    143.50      0  02:31       0.001     0.000
  WS02006235              0.01     66.61      0  02:09       0.000     0.000
  WS02006238              0.01     32.34      0  01:49       0.000     0.000
  WS02006239              0.01      6.17      0  01:49       0.000     0.000
  WS02006242              0.02     34.64      0  01:49       0.001     0.000
  WS02006243              0.01      4.71      0  02:35       0.000     0.000
  WS02006248              0.20     34.15      0  01:49       0.010     0.000
  WS02006249              1.48     79.63      0  02:23       0.278     0.000
  WS02006252              0.01    253.05      0  01:31       0.000     0.000
  WS02006256              1.80    352.53      0  01:32       0.688     0.000
  YS02001580              0.01     26.79      0  01:33       0.000     0.000
  YS02001583              0.01    199.98      0  01:33       0.001     0.000
  YS02001586              0.68    552.57      0  01:42       0.649     0.000
  YS02001590              0.01      7.97      0  01:33       0.000     0.000
  YS02001600              0.01      7.01      0  01:33       0.000     0.000
  YS02001601              0.86   1519.13      0  01:40       2.003     0.000
  YS02001602              0.68     62.00      0  01:57       0.140     0.000
  YS02001605              0.01      4.24      0  01:33       0.000     0.000
  YS02001607              0.01      0.27      0  01:51       0.000     0.000
  YS02001610              0.61    874.45      0  01:42       1.071     0.000
  YS02001616              0.01     63.19      0  01:33       0.000     0.000
  YS02001619              0.01     75.37      0  01:33       0.000     0.000
  YS02001622              0.01    146.32      0  01:33       0.000     0.000
  YS02001625              0.54   1426.69      0  01:43       1.426     0.000
  YS02001629              0.18    425.40      0  01:38       0.128     0.000
  YS02001633              0.01      5.46      0  01:51       0.000     0.000
  YS02001641              0.01     10.36      0  01:51       0.000     0.000
  YS02001644              0.23   1363.43      0  01:39       0.637     0.000
  YS02001649              0.01    295.12      0  01:36       0.008     0.000
  YS02001652              0.01      8.18      0  01:36       0.000     0.000
  YS02001655              0.01     76.25      0  01:36       0.000     0.000
  YS02001658              0.01     63.79      0  01:36       0.000     0.000
  YS02001661              0.01    270.48      0  01:36       0.000     0.000
  YS02001745              0.01    266.65      0  01:36       0.000     0.000
  YS02001748              0.01    346.27      0  01:36       0.001     0.000
  YS02001751              0.01    392.58      0  01:36       0.002     0.000
  YS02001754              0.01     10.58      0  01:36       0.000     0.000
  YS02001757              0.01     54.29      0  01:36       0.000     0.000
  YS02001759              0.01     19.66      0  01:36       0.000     0.000
  YS02001762              0.01     40.25      0  01:36       0.000     0.000
  YS02001765              0.01     10.93      0  01:36       0.000     0.000
  YS02001767              0.01    146.78      0  01:35       0.000     0.000
  YS02001770              0.03    247.33      0  01:35       0.008     0.000
  YS02001774              0.01    119.39      0  01:35       0.000     0.000
  YS02001779              0.21    790.56      0  01:39       0.348     0.000
  YS02001882              0.01     27.10      0  01:34       0.000     0.000
  YS02001890              0.23    519.88      0  01:38       0.217     0.000
  YS02001895              0.01    235.34      0  01:34       0.000     0.000
  YS02001907              0.48   2425.19      0  01:39       2.036     0.000
  YS02001918              0.01    232.78      0  01:35       0.004     0.000
  YS02001920              0.01     58.85      0  01:35       0.000     0.000
  YS02001923              0.01     97.84      0  01:35       0.000     0.000
  YS02001926              0.01    812.48      0  01:35       0.006     0.000
  YS02001929              0.01    643.58      0  01:35       0.001     0.000
  YS02163601              0.01     23.63      0  01:51       0.000     0.000
  YS02164001              0.01     27.44      0  01:51       0.000     0.000
  
  
  **********************
  Storage Volume Summary
  **********************
  
  ------------------------------------------------------------------------------------------------
                         Average    Avg   Evap  Exfil     Maximum    Max    Time of Max    Maximum
                          Volume   Pcnt   Pcnt   Pcnt      Volume   Pcnt     Occurrence    Outflow
  Storage Unit           1000 m³   Full   Loss   Loss     1000 m³   Full    days hr:min        LPS
  ------------------------------------------------------------------------------------------------
  CC-storage               1.507   23.5    0.0    0.0       3.741   58.4       0  02:25    1783.53
  JK-storage               0.010    3.6    0.0    0.0       0.150   51.6       0  00:00    2300.00
  
  
  ***********************
  Outfall Loading Summary
  ***********************
  
  -----------------------------------------------------------
                         Flow       Avg       Max       Total
                         Freq      Flow      Flow      Volume
  Outfall Node           Pcnt       LPS       LPS    10^6 ltr
  -----------------------------------------------------------
  CC-1                  49.01    683.00    683.00       5.671
  CC-2                  49.01    683.00    683.00       5.671
  JK-1                   9.23   1000.00   1000.00       1.521
  JK-2                   9.23   1000.00   1000.00       1.521
  WSC                   99.94    252.61    554.97       5.280
  -----------------------------------------------------------
  System                43.28   3618.61   3904.73      19.664
  
  
  ********************
  Link Flow Summary
  ********************
  
  -----------------------------------------------------------------------------
                                 Maximum  Time of Max   Maximum    Max/    Max/
                                  |Flow|   Occurrence   |Veloc|    Full    Full
  Link                 Type          LPS  days hr:min     m/sec    Flow   Depth
  -----------------------------------------------------------------------------
  1                    CONDUIT    554.97     0  03:10      2.83    0.19    0.30
  WS02003060WS02003069 CONDUIT    553.25     0  03:08      1.64    0.22    0.34
  WS02003066WSF200     CONDUIT    536.80     0  03:07      2.85    0.09    0.22
  WS02003067WS02003066 CONDUIT    536.76     0  03:07      1.21    0.17    0.42
  WS02003069WS02003072 CONDUIT    553.33     0  03:09      1.37    0.27    0.39
  WS02003072WS02003073 CONDUIT    553.22     0  03:09      1.44    1.19    0.37
  WS02004401WS02004402 CONDUIT    538.88     0  03:05      1.22    0.65    0.86
  WS02004402WS02004403 CONDUIT    538.77     0  03:05      1.24    0.77    0.88
  WS02004403WS02004404 CONDUIT    538.21     0  03:05      1.24    0.39    0.93
  WS02004404WS02004405 CONDUIT    538.23     0  03:05      1.45    5.27    0.96
  WS02004405WS02004406 CONDUIT    538.48     0  03:05      1.46    1.06    0.96
  WS02004406WS02004407 CONDUIT    537.90     0  03:05      1.04    0.24    0.63
  WS02004407WS02004409 CONDUIT    537.60     0  03:06      1.59    0.19    0.48
  WS02004409WS02004410 CONDUIT    537.29     0  03:06      1.06    0.69    0.67
  WS02004410WS02004411 CONDUIT    537.11     0  03:06      1.13    0.73    0.69
  WS02004411WS02004412 CONDUIT    536.97     0  03:06      1.20    0.76    0.69
  WS02004412WS02004413 CONDUIT    536.96     0  03:07      1.22    0.36    0.78
  WS02004413WS02003067 CONDUIT    536.73     0  03:07      1.11    0.23    0.59
  WS02006109WS02006110 CONDUIT    561.32     0  01:51      1.12    1.08    1.00
  WS02006110WS02006113 CONDUIT    570.88     0  01:39      1.37    0.52    0.79
  WS02006111WS02006112 CONDUIT    543.38     0  03:04      1.95    0.26    0.67
  WS02006112WS02006115 CONDUIT    548.41     0  02:36      0.86    0.32    0.87
  WS02006113WS02006111 CONDUIT    561.26     0  02:44      2.47    0.67    0.46
  WS02006115WS02006116 CONDUIT    541.25     0  03:04      1.29    0.69    0.76
  WS02006116WS02004401 CONDUIT    539.84     0  03:05      1.21    0.74    0.84
  WS02006228WS02006109 CONDUIT    559.21     0  02:30      1.11    2.44    1.00
  WS02006229WS02006228 CONDUIT    558.87     0  02:30      1.12    1.85    1.00
  WS02006230WS02006229 CONDUIT    558.34     0  02:30      1.45   12.43    1.00
  WS02006231WS02006230 CONDUIT    593.24     0  02:35      1.60    9.00    1.00
  WS02006232WS02006231 CONDUIT    598.21     0  03:24      1.56    1.25    1.00
  WS02006234WS02006232 CONDUIT    596.15     0  03:17      1.55    1.21    1.00
  WS02006235WS02006234 CONDUIT    587.68     0  03:17      1.67    6.20    1.00
  WS02006238WS02006235 CONDUIT    437.10     0  01:35      1.48    0.98    1.00
  WS02006239WS02006238 CONDUIT    423.56     0  02:45      1.17    1.36    1.00
  WS02006240WS02006239 CONDUIT    422.81     0  03:14      1.29    1.33    1.00
  WS02006242WS02006240 CONDUIT    420.30     0  03:14      1.16    1.67    1.00
  WS02006243WS02006242 CONDUIT    421.15     0  03:14      1.42    0.90    1.00
  WS02006245WS02006243 CONDUIT    420.48     0  03:18      1.44    1.24    1.00
  WS02006247WS02006245 CONDUIT    420.27     0  03:18      1.43    3.33    1.00
  WS02006248WS02006247 CONDUIT    421.03     0  03:18      1.46    0.92    1.00
  WS02006249WS02006248 CONDUIT    420.86     0  02:34      1.39    2.31    1.00
  WS02006251WS02006249 CONDUIT    481.27     0  01:32      2.03    1.39    1.00
  WS02006252WS02006251 CONDUIT    406.29     0  03:24      4.89    1.49    1.00
  WS02006256WS02006235 CONDUIT    288.91     0  00:00      4.23    3.06    1.00
  WSF200WS02003060     CONDUIT    536.93     0  03:08      2.06    0.12    0.28
  YS02001580YS02001583 CONDUIT    161.80     0  01:33      0.89    0.63    1.00
  YS02001583YS02001586 CONDUIT    200.94     0  01:33      0.93    0.30    1.00
  YS02001586YS02001590 CONDUIT    320.36     0  01:51      1.28    0.56    1.00
  YS02001590YS02001593 CONDUIT    322.60     0  01:51      1.14    2.03    1.00
  YS02001593YS02001596 CONDUIT    318.07     0  01:51      1.75    0.50    1.00
  YS02001596YS02001600 CONDUIT    318.05     0  01:51      1.23    0.62    1.00
  YS02001600YS02001601 CONDUIT    318.26     0  01:51      1.13    0.55    1.00
  YS02001601YS02001602 CONDUIT    575.76     0  01:33      2.04    2.08    1.00
  YS02001602YS02001605 CONDUIT    575.61     0  01:33      2.04   12.18    1.00
  YS02001605YS02001607 CONDUIT    575.80     0  01:33      2.04    3.16    1.00
  YS02001607YS02001610 CONDUIT    538.75     0  01:33      0.71    0.51    1.00
  YS02001610YS02001613 CONDUIT    538.51     0  01:42      0.69    0.62    1.00
  YS02001613YS02001616 CONDUIT    538.90     0  01:42      0.69    0.46    1.00
  YS02001616YS02001619 CONDUIT    538.50     0  01:42      0.69    0.93    1.00
  YS02001619YS02001622 CONDUIT   1012.38     0  01:41      1.29    1.49    1.00
  YS02001622YS02001625 CONDUIT   1011.94     0  01:41      1.29    0.54    1.00
  YS02001625YS02001629 CONDUIT    946.94     0  01:33      1.21    0.45    1.00
  YS02001629YS02163301 CONDUIT    902.90     0  02:12      1.15    1.11    1.00
  YS02001633YS02163601 CONDUIT   1439.28     0  01:34      1.83    1.51    1.00
  YS02001641YS02001644 CONDUIT   1441.80     0  01:34      1.84    4.66    1.00
  YS02001644YS02001647 CONDUIT   1955.47     0  01:34      2.50    1.15    1.00
  YS02001647YS02001649 CONDUIT   1960.70     0  01:35      2.50    1.04    1.00
  YS02001649YS02001757 CONDUIT   2234.28     0  01:35      2.84    1.36    1.00
  YS02001652YS02001649 CONDUIT   1082.30     0  01:37      1.38    0.54    1.00
  YS02001655YS02001652 CONDUIT   1082.42     0  01:37      1.54    0.53    1.00
  YS02001658YS02001655 CONDUIT   1083.15     0  01:37      2.05    0.46    1.00
  YS02001661YS02001658 CONDUIT   1082.92     0  01:37      2.47    0.42    1.00
  YS02001664YS02001661 CONDUIT   1081.92     0  01:37      2.59    0.34    1.00
  YS02001745YS02001748 CONDUIT    702.78     0  01:38      2.47    0.27    1.00
  YS02001748YS02001751 CONDUIT    703.18     0  01:38      1.92    0.36    1.00
  YS02001751YS02001754 CONDUIT    703.26     0  01:38      1.60    0.34    1.00
  YS02001754YS02001757 CONDUIT    703.39     0  01:38      0.90    0.28    1.00
  YS02001757CaochengTiaoxuchi CONDUIT   3548.73     0  01:37      6.13    1.54    1.00
  YS02001759YS02001757 CONDUIT   1575.41     0  01:36      2.01    1.12    1.00
  YS02001762YS02001759 CONDUIT    832.01     0  01:48      1.06    0.96    1.00
  YS02001765YS02001762 CONDUIT    831.88     0  01:48      1.06    0.78    1.00
  YS02001767YS02001765 CONDUIT    831.82     0  01:48      1.06    1.05    1.00
  YS02001770YS02001767 CONDUIT    831.19     0  01:48      1.06    3.29    1.00
  YS02001774YS02001770 CONDUIT    791.74     0  01:39      1.01    0.51    1.00
  YS02001779YS02001774 CONDUIT    790.66     0  01:39      1.01    0.40    1.00
  YS02001783YS02001784 CONDUIT   1172.56     0  01:37      2.33    1.62    1.00
  YS02001784YS02001785 CONDUIT   1173.22     0  01:37      2.33    2.73    1.00
  YS02001786YS02001788 CONDUIT   1175.20     0  01:37      2.50    2.26    0.89
  YS02001788YS02001790 CONDUIT   1177.13     0  01:35      2.72    0.87    0.84
  YS02001790YS02001791 CONDUIT   1289.18     0  01:42      3.43    1.40    0.70
  YS02001791YS02001793 CONDUIT   1248.96     0  01:39      6.80    0.54    0.42
  YS02001793JiankangQianchi CONDUIT   1370.89     0  01:55     15.02    0.11    0.50
  YS02001882YS02001884 CONDUIT     94.31     0  01:34      0.17    0.11    1.00
  YS02001884YS02001887 CONDUIT    137.02     0  01:33      0.17    0.18    1.00
  YS02001887YS02001890 CONDUIT   1038.94     0  01:38      1.32    1.78    1.00
  YS02001890YS02001895 CONDUIT    595.76     0  01:34      0.76    0.28    1.00
  YS02001895YS02001898 CONDUIT    592.69     0  01:34      0.75    1.03    1.00
  YS02001898YS02001901 CONDUIT    596.62     0  01:34      0.76    0.38    1.00
  YS02001901YS02001904 CONDUIT    597.50     0  01:34      0.76    0.93    1.00
  YS02001904YS02001907 CONDUIT    596.60     0  01:34      0.76    0.21    1.00
  YS02001907YS02006553 CONDUIT    796.10     0  02:06      0.88    0.94    1.00
  YS02001910YS02001907 CONDUIT   1728.44     0  01:40      2.20    0.97    1.00
  YS02001915YS02001910 CONDUIT   1727.65     0  01:40      2.20    0.86    1.00
  YS02001918YS02001915 CONDUIT    700.03     0  01:34      0.91    0.39    1.00
  YS02001920YS02001918 CONDUIT    696.84     0  01:34      0.89    0.67    1.00
  YS02001923YS02001920 CONDUIT    722.16     0  01:34      0.99    0.32    1.00
  YS02001926YS02001923 CONDUIT    963.67     0  01:35      1.41    1.38    1.00
  YS02001929YS02001926 CONDUIT    618.58     0  01:35      1.23    0.29    1.00
  YS02006553YS02006556 CONDUIT    796.92     0  02:06      1.01    0.68    1.00
  YS02006556YS02006558 CONDUIT    798.40     0  02:06      1.02    0.63    1.00
  YS02006558YS02006561 CONDUIT   1176.78     0  01:34      4.16    2.60    1.00
  YS02006561YS02001783 CONDUIT   1172.08     0  01:37      2.33    0.61    1.00
  YS02163301YS02001633 CONDUIT    902.68     0  02:10      1.15    0.85    1.00
  YS02163601YS02164001 CONDUIT   1438.94     0  01:34      1.83    1.27    1.00
  YS02164001YS02001641 CONDUIT   1439.76     0  01:34      1.83    1.97    1.00
  CC-R1                PUMP       683.00     0  00:00              1.00
  CC-R2                PUMP       683.00     0  00:00              1.00
  CC-S1                PUMP       200.00     0  00:00              1.00
  CC-S2                PUMP       200.00     0  00:00              1.00
  JK-R1                PUMP      1000.00     0  00:00              1.00
  JK-R2                PUMP      1000.00     0  00:00              1.00
  JK-S                 PUMP       300.00     0  00:00              1.00
  
  
  ***************************
  Flow Classification Summary
  ***************************
  
  -------------------------------------------------------------------------------------
                      Adjusted    ---------- Fraction of Time in Flow Class ---------- 
                       /Actual         Up    Down  Sub   Sup   Up    Down  Norm  Inlet 
  Conduit               Length    Dry  Dry   Dry   Crit  Crit  Crit  Crit  Ltd   Ctrl  
  -------------------------------------------------------------------------------------
  1                       1.00   0.00  0.00  0.00  0.00  1.00  0.00  0.00  0.34  0.00
  WS02003060WS02003069    1.00   0.00  0.00  0.00  0.97  0.03  0.00  0.00  0.71  0.00
  WS02003066WSF200        1.00   0.05  0.00  0.00  0.00  0.95  0.00  0.00  0.78  0.00
  WS02003067WS02003066    1.00   0.05  0.00  0.00  0.95  0.00  0.00  0.00  0.00  0.00
  WS02003069WS02003072    1.00   0.00  0.00  0.00  0.99  0.01  0.00  0.00  0.71  0.00
  WS02003072WS02003073    1.00   0.00  0.00  0.00  0.00  0.00  0.00  1.00  0.00  0.00
  WS02004401WS02004402    1.00   0.02  0.00  0.00  0.98  0.00  0.00  0.00  0.00  0.00
  WS02004402WS02004403    1.00   0.02  0.00  0.00  0.98  0.00  0.00  0.00  0.00  0.00
  WS02004403WS02004404    1.00   0.00  0.03  0.00  0.97  0.00  0.00  0.00  0.00  0.00
  WS02004404WS02004405    1.00   0.00  0.00  0.00  1.00  0.00  0.00  0.00  0.01  0.00
  WS02004405WS02004406    1.00   0.00  0.00  0.00  1.00  0.00  0.00  0.00  0.00  0.00
  WS02004406WS02004407    1.00   0.00  0.03  0.00  0.97  0.00  0.00  0.00  0.00  0.00
  WS02004407WS02004409    1.00   0.03  0.00  0.00  0.95  0.02  0.00  0.00  0.95  0.00
  WS02004409WS02004410    1.00   0.03  0.00  0.00  0.96  0.00  0.00  0.00  0.00  0.00
  WS02004410WS02004411    1.00   0.04  0.00  0.00  0.96  0.00  0.00  0.00  0.00  0.00
  WS02004411WS02004412    1.00   0.04  0.00  0.00  0.96  0.00  0.00  0.00  0.00  0.00
  WS02004412WS02004413    1.00   0.04  0.00  0.00  0.96  0.00  0.00  0.00  0.00  0.00
  WS02004413WS02003067    1.00   0.04  0.01  0.00  0.00  0.00  0.95  0.00  0.00  0.00
  WS02006109WS02006110    1.00   0.00  0.01  0.00  0.98  0.00  0.01  0.00  0.00  0.00
  WS02006110WS02006113    1.00   0.01  0.01  0.00  0.98  0.00  0.00  0.00  0.00  0.00
  WS02006111WS02006112    1.00   0.02  0.00  0.00  0.98  0.00  0.00  0.00  0.98  0.00
  WS02006112WS02006115    1.00   0.02  0.00  0.00  0.97  0.00  0.00  0.00  0.00  0.00
  WS02006113WS02006111    1.00   0.02  0.00  0.00  0.00  0.98  0.00  0.00  0.14  0.00
  WS02006115WS02006116    1.00   0.02  0.00  0.00  0.97  0.00  0.00  0.01  0.00  0.00
  WS02006116WS02004401    1.00   0.02  0.00  0.00  0.98  0.00  0.00  0.00  0.00  0.00
  WS02006228WS02006109    1.00   0.00  0.00  0.00  1.00  0.00  0.00  0.00  0.00  0.00
  WS02006229WS02006228    1.00   0.00  0.00  0.00  0.99  0.00  0.00  0.01  0.00  0.00
  WS02006230WS02006229    1.00   0.00  0.00  0.00  0.99  0.00  0.00  0.01  0.02  0.00
  WS02006231WS02006230    1.00   0.00  0.00  0.00  0.30  0.00  0.70  0.00  0.00  0.00
  WS02006232WS02006231    1.00   0.00  0.00  0.00  0.98  0.00  0.02  0.00  0.00  0.00
  WS02006234WS02006232    1.00   0.00  0.00  0.00  1.00  0.00  0.00  0.00  0.05  0.00
  WS02006235WS02006234    1.00   0.00  0.00  0.00  0.92  0.00  0.08  0.00  0.00  0.00
  WS02006238WS02006235    1.00   0.00  0.00  0.00  1.00  0.00  0.00  0.00  0.00  0.00
  WS02006239WS02006238    1.00   0.00  0.00  0.00  1.00  0.00  0.00  0.00  0.20  0.00
  WS02006240WS02006239    1.00   0.00  0.00  0.00  0.67  0.00  0.00  0.33  0.04  0.00
  WS02006242WS02006240    1.00   0.00  0.00  0.00  0.99  0.00  0.00  0.00  0.03  0.00
  WS02006243WS02006242    1.00   0.00  0.00  0.00  0.99  0.00  0.00  0.01  0.60  0.00
  WS02006245WS02006243    1.00   0.00  0.00  0.00  0.51  0.00  0.00  0.49  0.01  0.00
  WS02006247WS02006245    1.00   0.00  0.00  0.00  0.99  0.00  0.00  0.01  0.00  0.00
  WS02006248WS02006247    1.00   0.00  0.00  0.00  0.99  0.00  0.00  0.01  0.14  0.00
  WS02006249WS02006248    1.00   0.00  0.00  0.00  0.38  0.00  0.62  0.00  0.00  0.00
  WS02006251WS02006249    1.00   0.00  0.00  0.00  1.00  0.00  0.00  0.00  0.63  0.00
  WS02006252WS02006251    1.00   0.00  0.67  0.00  0.21  0.00  0.13  0.00  0.51  0.00
  WS02006256WS02006235    1.00   0.00  0.00  0.00  0.98  0.02  0.00  0.00  0.00  0.00
  WSF200WS02003060        1.00   0.00  0.05  0.00  0.45  0.50  0.00  0.00  0.63  0.00
  YS02001580YS02001583    1.00   0.19  0.58  0.00  0.22  0.00  0.00  0.00  0.68  0.00
  YS02001583YS02001586    1.00   0.41  0.31  0.00  0.28  0.00  0.00  0.00  0.68  0.00
  YS02001586YS02001590    1.00   0.13  0.00  0.00  0.44  0.04  0.00  0.39  0.34  0.00
  YS02001590YS02001593    1.00   0.13  0.01  0.00  0.15  0.00  0.72  0.00  0.00  0.00
  YS02001593YS02001596    1.00   0.13  0.00  0.00  0.17  0.01  0.00  0.68  0.03  0.00
  YS02001596YS02001600    1.00   0.14  0.00  0.00  0.23  0.01  0.00  0.63  0.03  0.00
  YS02001600YS02001601    1.00   0.13  0.01  0.00  0.86  0.00  0.00  0.00  0.58  0.00
  YS02001601YS02001602    1.00   0.13  0.01  0.00  0.87  0.00  0.00  0.00  0.00  0.00
  YS02001602YS02001605    1.00   0.13  0.00  0.00  0.86  0.00  0.00  0.00  0.00  0.00
  YS02001605YS02001607    1.00   0.14  0.00  0.00  0.86  0.00  0.00  0.00  0.00  0.00
  YS02001607YS02001610    1.00   0.13  0.01  0.00  0.86  0.00  0.00  0.00  0.01  0.00
  YS02001610YS02001613    1.00   0.13  0.00  0.00  0.87  0.00  0.00  0.00  0.00  0.00
  YS02001613YS02001616    1.00   0.13  0.00  0.00  0.87  0.00  0.00  0.00  0.00  0.00
  YS02001616YS02001619    1.00   0.13  0.00  0.00  0.87  0.00  0.00  0.00  0.00  0.00
  YS02001619YS02001622    1.00   0.13  0.00  0.00  0.87  0.00  0.00  0.00  0.28  0.00
  YS02001622YS02001625    1.00   0.13  0.00  0.00  0.87  0.00  0.00  0.00  0.03  0.00
  YS02001625YS02001629    1.00   0.13  0.04  0.00  0.20  0.00  0.63  0.00  0.00  0.00
  YS02001629YS02163301    1.00   0.15  0.01  0.00  0.84  0.00  0.00  0.00  0.00  0.00
  YS02001633YS02163601    1.00   0.00  0.01  0.00  0.99  0.00  0.00  0.00  0.15  0.00
  YS02001641YS02001644    1.00   0.00  0.01  0.00  0.99  0.00  0.00  0.00  0.00  0.00
  YS02001644YS02001647    1.00   0.00  0.16  0.00  0.84  0.00  0.00  0.00  0.00  0.00
  YS02001647YS02001649    1.00   0.00  0.16  0.00  0.52  0.31  0.00  0.00  0.56  0.00
  YS02001649YS02001757    1.00   0.00  0.00  0.00  0.66  0.34  0.00  0.00  0.49  0.00
  YS02001652YS02001649    1.00   0.00  0.00  0.00  0.97  0.03  0.00  0.00  0.72  0.00
  YS02001655YS02001652    1.00   0.00  0.00  0.00  0.22  0.01  0.00  0.77  0.07  0.00
  YS02001658YS02001655    1.00   0.00  0.14  0.00  0.66  0.20  0.00  0.00  0.70  0.00
  YS02001661YS02001658    1.00   0.14  0.00  0.00  0.49  0.37  0.00  0.00  0.75  0.00
  YS02001664YS02001661    1.00   0.13  0.00  0.00  0.70  0.17  0.00  0.00  0.84  0.00
  YS02001745YS02001748    1.00   0.00  0.00  0.00  0.09  0.01  0.00  0.90  0.07  0.00
  YS02001748YS02001751    1.00   0.00  0.00  0.00  0.82  0.18  0.00  0.00  0.81  0.00
  YS02001751YS02001754    1.00   0.00  0.00  0.00  0.16  0.01  0.00  0.83  0.03  0.00
  YS02001754YS02001757    1.00   0.00  0.00  0.00  1.00  0.00  0.00  0.00  0.82  0.00
  YS02001757CaochengTiaoxuchi    1.00   0.00  0.00  0.00  0.84  0.16  0.00  0.00  0.75  0.00
  YS02001759YS02001757    1.00   0.00  0.00  0.00  0.99  0.01  0.00  0.00  0.61  0.00
  YS02001762YS02001759    1.00   0.00  0.00  0.00  1.00  0.00  0.00  0.00  0.03  0.00
  YS02001765YS02001762    1.00   0.00  0.00  0.00  1.00  0.00  0.00  0.00  0.71  0.00
  YS02001767YS02001765    1.00   0.00  0.00  0.00  1.00  0.00  0.00  0.00  0.00  0.00
  YS02001770YS02001767    1.00   0.00  0.00  0.00  1.00  0.00  0.00  0.00  0.00  0.00
  YS02001774YS02001770    1.00   0.00  0.13  0.00  0.71  0.00  0.15  0.00  0.02  0.00
  YS02001779YS02001774    1.00   0.00  0.00  0.00  1.00  0.00  0.00  0.00  0.76  0.00
  YS02001783YS02001784    1.00   0.00  0.17  0.00  0.83  0.00  0.00  0.00  0.55  0.00
  YS02001784YS02001785    1.00   0.00  0.00  0.00  1.00  0.00  0.00  0.00  0.16  0.00
  YS02001786YS02001788    1.00   0.00  0.00  0.00  0.79  0.21  0.00  0.00  0.00  0.00
  YS02001788YS02001790    1.00   0.00  0.00  0.00  0.20  0.80  0.00  0.00  0.78  0.00
  YS02001790YS02001791    1.00   0.00  0.00  0.00  0.01  0.99  0.00  0.00  0.17  0.00
  YS02001791YS02001793    1.00   0.00  0.00  0.00  0.00  1.00  0.00  0.00  0.01  0.00
  YS02001793JiankangQianchi    1.00   0.00  0.00  0.00  0.62  0.37  0.00  0.00  0.94  0.00
  YS02001882YS02001884    1.00   0.15  0.01  0.00  0.85  0.00  0.00  0.00  0.00  0.00
  YS02001884YS02001887    1.00   0.06  0.05  0.00  0.89  0.00  0.00  0.00  0.00  0.00
  YS02001887YS02001890    1.00   0.00  0.00  0.00  0.97  0.00  0.03  0.00  0.00  0.00
  YS02001890YS02001895    1.00   0.00  0.15  0.00  0.84  0.00  0.00  0.00  0.00  0.00
  YS02001895YS02001898    1.00   0.16  0.00  0.00  0.83  0.00  0.01  0.00  0.00  0.00
  YS02001898YS02001901    1.00   0.16  0.00  0.00  0.84  0.00  0.00  0.00  0.01  0.00
  YS02001901YS02001904    1.00   0.16  0.00  0.00  0.84  0.00  0.00  0.00  0.00  0.00
  YS02001904YS02001907    1.00   0.00  0.16  0.00  0.84  0.00  0.00  0.00  0.00  0.00
  YS02001907YS02006553    1.00   0.00  0.02  0.00  0.98  0.00  0.00  0.00  0.00  0.00
  YS02001910YS02001907    1.00   0.00  0.00  0.00  0.97  0.00  0.00  0.03  0.12  0.00
  YS02001915YS02001910    1.00   0.00  0.00  0.00  0.97  0.03  0.00  0.00  0.13  0.00
  YS02001918YS02001915    1.00   0.00  0.01  0.00  0.98  0.02  0.00  0.00  0.72  0.00
  YS02001920YS02001918    1.00   0.00  0.01  0.00  0.99  0.00  0.00  0.00  0.00  0.00
  YS02001923YS02001920    1.00   0.00  0.00  0.00  1.00  0.00  0.00  0.00  0.90  0.00
  YS02001926YS02001923    1.00   0.00  0.07  0.00  0.08  0.00  0.84  0.00  0.00  0.00
  YS02001929YS02001926    1.00   0.00  0.13  0.00  0.87  0.00  0.00  0.00  0.80  0.00
  YS02006553YS02006556    1.00   0.01  0.00  0.00  0.99  0.00  0.00  0.00  0.03  0.00
  YS02006556YS02006558    1.00   0.00  0.00  0.00  1.00  0.00  0.00  0.00  0.00  0.00
  YS02006558YS02006561    1.00   0.17  0.00  0.00  0.08  0.76  0.00  0.00  0.18  0.00
  YS02006561YS02001783    1.00   0.17  0.00  0.00  0.11  0.72  0.00  0.00  0.66  0.00
  YS02163301YS02001633    1.00   0.00  0.15  0.00  0.85  0.00  0.00  0.00  0.00  0.00
  YS02163601YS02164001    1.00   0.00  0.08  0.00  0.92  0.00  0.00  0.00  0.00  0.00
  YS02164001YS02001641    1.00   0.01  0.08  0.00  0.92  0.00  0.00  0.00  0.05  0.00
  
  
  *************************
  Conduit Surcharge Summary
  *************************
  
  ----------------------------------------------------------------------------
                                                           Hours        Hours 
                         --------- Hours Full --------   Above Full   Capacity
  Conduit                Both Ends  Upstream  Dnstream   Normal Flow   Limited
  ----------------------------------------------------------------------------
  WS02003072WS02003073        0.01      0.01      0.01      1.84         0.01
  WS02004404WS02004405        0.01      0.01      0.01      3.05         0.01
  WS02004405WS02004406        0.01      0.01      0.01      1.31         0.01
  WS02006109WS02006110        0.66      0.66      2.23      0.96         0.01
  WS02006110WS02006113        0.01      0.01      2.17      0.01         0.01
  WS02006111WS02006112        0.01      0.01      2.31      0.01         0.01
  WS02006112WS02006115        0.01      0.01      1.46      0.01         0.01
  WS02006228WS02006109        2.10      2.22      2.10      2.62         2.10
  WS02006229WS02006228        2.07      2.12      2.07      2.48         2.05
  WS02006230WS02006229        2.34      2.41      2.34      3.51         2.34
  WS02006231WS02006230        0.74      0.74      1.52      3.17         0.01
  WS02006232WS02006231        1.29      1.29      2.25      1.36         0.01
  WS02006234WS02006232        1.86      1.86      2.25      1.31         1.17
  WS02006235WS02006234        1.61      1.66      1.89      3.03         0.11
  WS02006238WS02006235        1.96      1.96      2.27      0.01         0.06
  WS02006239WS02006238        2.09      2.25      2.09      2.44         1.74
  WS02006240WS02006239        2.04      2.15      2.04      2.44         1.63
  WS02006242WS02006240        2.13      2.13      2.37      2.55         0.03
  WS02006243WS02006242        2.18      2.18      2.30      0.01         0.28
  WS02006245WS02006243        2.15      2.17      2.15      1.87         1.18
  WS02006247WS02006245        2.15      2.21      2.15      2.64         2.01
  WS02006248WS02006247        2.15      2.15      2.19      0.01         0.31
  WS02006249WS02006248        2.13      2.13      2.17      2.62         0.01
  WS02006251WS02006249        2.17      2.18      2.17      2.59         1.98
  WS02006252WS02006251        2.64      2.64      2.64      2.64         0.01
  WS02006256WS02006235        2.89      3.10      5.78      1.83         0.02
  YS02001580YS02001583        0.83      0.83      0.86      0.01         0.01
  YS02001583YS02001586        0.84      0.84      0.95      0.01         0.01
  YS02001586YS02001590        0.96      0.96      1.04      0.01         0.01
  YS02001590YS02001593        1.04      1.04      1.05      1.15         0.01
  YS02001593YS02001596        1.04      1.04      1.15      0.01         0.01
  YS02001596YS02001600        1.21      1.21      1.35      0.01         0.01
  YS02001600YS02001601        1.45      1.45      1.70      0.01         0.01
  YS02001601YS02001602        1.63      1.63      1.73      1.39         0.01
  YS02001602YS02001605        1.59      1.59      1.63      2.37         0.01
  YS02001605YS02001607        1.55      1.59      1.55      1.68         1.55
  YS02001607YS02001610        0.96      0.96      1.00      0.01         0.01
  YS02001610YS02001613        0.95      0.95      1.00      0.01         0.01
  YS02001613YS02001616        0.91      0.91      0.95      0.01         0.01
  YS02001616YS02001619        0.89      0.89      0.91      0.01         0.08
  YS02001619YS02001622        0.88      0.89      0.88      1.09         0.86
  YS02001622YS02001625        0.88      0.88      1.10      0.01         0.01
  YS02001625YS02001629        0.78      0.78      1.10      0.01         0.01
  YS02001629YS02163301        1.07      1.07      1.08      0.41         0.37
  YS02001633YS02163601        1.10      1.10      1.14      0.62         0.61
  YS02001641YS02001644        0.95      1.00      0.95      1.75         0.95
  YS02001644YS02001647        0.69      0.69      0.95      0.04         0.01
  YS02001647YS02001649        0.69      0.69      0.81      0.01         0.01
  YS02001649YS02001757        0.80      0.81      0.86      0.48         0.44
  YS02001652YS02001649        0.60      0.60      0.81      0.01         0.01
  YS02001655YS02001652        0.35      0.35      0.57      0.01         0.01
  YS02001658YS02001655        0.24      0.24      0.35      0.01         0.01
  YS02001661YS02001658        0.09      0.09      0.24      0.01         0.01
  YS02001664YS02001661        0.01      0.01      0.12      0.01         0.01
  YS02001745YS02001748        0.01      0.01      0.14      0.01         0.01
  YS02001748YS02001751        0.20      0.20      0.26      0.01         0.01
  YS02001751YS02001754        0.26      0.26      0.39      0.01         0.01
  YS02001754YS02001757        0.44      0.44      0.86      0.01         0.01
  YS02001757CaochengTiaoxuchi        0.53      0.86      1.10      0.58         0.22
  YS02001759YS02001757        0.73      0.73      0.86      0.11         0.11
  YS02001762YS02001759        0.69      0.69      0.73      0.01         0.03
  YS02001765YS02001762        0.64      0.64      0.69      0.01         0.01
  YS02001767YS02001765        0.59      0.59      0.64      0.03         0.06
  YS02001770YS02001767        0.59      0.60      0.59      0.71         0.52
  YS02001774YS02001770        0.56      0.56      0.67      0.01         0.01
  YS02001779YS02001774        0.41      0.41      0.67      0.01         0.01
  YS02001783YS02001784        0.67      0.70      0.67      0.85         0.67
  YS02001784YS02001785        0.56      0.67      0.56      1.16         0.56
  YS02001786YS02001788        0.01      0.56      0.01      0.98         0.01
  YS02001790YS02001791        0.01      0.01      0.01      0.66         0.01
  YS02001882YS02001884        0.63      0.63      0.64      0.01         0.01
  YS02001884YS02001887        0.67      0.67      0.69      0.01         0.01
  YS02001887YS02001890        0.70      0.70      0.71      0.19         0.01
  YS02001890YS02001895        0.62      0.62      0.73      0.01         0.01
  YS02001895YS02001898        0.62      0.62      0.62      0.01         0.01
  YS02001898YS02001901        0.62      0.62      0.67      0.01         0.01
  YS02001901YS02001904        0.66      0.66      0.67      0.01         0.01
  YS02001904YS02001907        0.66      0.66      0.95      0.01         0.01
  YS02001907YS02006553        1.17      1.17      1.26      0.01         0.01
  YS02001910YS02001907        0.73      0.73      0.91      0.01         0.01
  YS02001915YS02001910        0.63      0.63      0.73      0.01         0.01
  YS02001918YS02001915        0.54      0.54      0.63      0.01         0.01
  YS02001920YS02001918        0.54      0.54      0.56      0.01         0.01
  YS02001923YS02001920        0.49      0.49      0.56      0.01         0.01
  YS02001926YS02001923        0.20      0.20      0.23      0.01         0.01
  YS02001929YS02001926        0.03      0.03      0.23      0.01         0.01
  YS02006553YS02006556        0.82      0.82      0.95      0.01         0.01
  YS02006556YS02006558        0.88      0.88      0.98      0.01         0.01
  YS02006558YS02006561        0.58      0.81      0.58      1.10         0.58
  YS02006561YS02001783        0.50      0.50      0.70      0.01         0.01
  YS02163301YS02001633        1.08      1.08      1.13      0.01         0.01
  YS02163601YS02164001        1.01      1.01      1.14      0.25         0.01
  YS02164001YS02001641        1.00      1.01      1.00      0.94         0.76
  
  
  ***************
  Pumping Summary
  ***************
  
  ---------------------------------------------------------------------------------------------------------
                                                  Min       Avg       Max     Total     Power    % Time Off
                        Percent   Number of      Flow      Flow      Flow    Volume     Usage    Pump Curve
  Pump                 Utilized   Start-Ups       LPS       LPS       LPS  10^6 ltr     Kw-hr    Low   High
  ---------------------------------------------------------------------------------------------------------
  CC-R1                   29.13           2      0.00    683.00    683.00     5.670     98.59    0.0   52.3
  CC-R2                   29.13           2      0.00    683.00    683.00     5.670     98.59    0.0   52.3
  CC-S1                   33.30           3      0.00    200.00    200.00     1.898     13.33    0.0   19.8
  CC-S2                   33.30           3      0.00    200.00    200.00     1.898     13.33    0.0   19.8
  JK-R1                    5.39          70      0.00   1000.00   1000.00     1.537      4.83    0.0    0.0
  JK-R2                    5.39          70      0.00   1000.00   1000.00     1.537      4.83    0.0    0.0
  JK-S                    22.67         101      0.00    300.00    300.00     1.938     42.99    0.0    0.0
  

  Analysis begun on:  Tue Apr 22 10:17:37 2025
  Analysis ended on:  Tue Apr 22 10:17:38 2025
  Total elapsed time: 00:00:01