
  EPA STORM WATER MANAGEMENT MODEL - VERSION 5.2 (Build 5.2.4)
  PYSWMM TOOLKIT API - VERSION v1.0 (2023-11-27)
  ------------------------------------------------------------

  WARNING 04: minimum elevation drop used for Conduit WS02004404WS02004405
  WARNING 03: negative offset ignored for Link YS02001904YS02001907
  
  ****************
  Analysis Options
  ****************
  Flow Units ............... LPS
  Process Models:
    Rainfall/Runoff ........ YES
    RDII ................... NO
    Snowmelt ............... NO
    Groundwater ............ NO
    Flow Routing ........... YES
    Ponding Allowed ........ NO
    Water Quality .......... NO
  Infiltration Method ...... HORTON
  Flow Routing Method ...... DYNWAVE
  Surcharge Method ......... EXTRAN
  Starting Date ............ 08/28/2015 08:00:00
  Ending Date .............. 08/28/2015 16:00:00
  Antecedent Dry Days ...... 8.0
  Report Time Step ......... 00:01:00
  Wet Time Step ............ 00:01:00
  Dry Time Step ............ 00:01:00
  Routing Time Step ........ 30.00 sec
  Variable Time Step ....... YES
  Maximum Trials ........... 8
  Number of Threads ........ 4
  Head Tolerance ........... 0.001500 m
  
  
  **************************        Volume         Depth
  Runoff Quantity Continuity     hectare-m            mm
  **************************     ---------       -------
  Total Precipitation ......         1.966        59.279
  Evaporation Loss .........         0.000         0.000
  Infiltration Loss ........         0.101         3.059
  Surface Runoff ...........         1.832        55.236
  Final Storage ............         0.033         0.996
  Continuity Error (%) .....        -0.020
  
  
  **************************        Volume        Volume
  Flow Routing Continuity        hectare-m      10^6 ltr
  **************************     ---------     ---------
  Dry Weather Inflow .......         0.025         0.251
  Wet Weather Inflow .......         1.833        18.325
  Groundwater Inflow .......         0.000         0.000
  RDII Inflow ..............         0.000         0.000
  External Inflow ..........         0.083         0.834
  External Outflow .........         1.536        15.358
  Flooding Loss ............         0.475         4.745
  Evaporation Loss .........         0.000         0.000
  Exfiltration Loss ........         0.000         0.000
  Initial Stored Volume ....         0.243         2.431
  Final Stored Volume ......         0.182         1.820
  Continuity Error (%) .....        -0.375
  
  
  *************************
  Highest Continuity Errors
  *************************
  Node YS02001884 (5.04%)
  Node YS02001583 (-4.22%)
  Node WS02006256 (-2.52%)
  
  
  ***************************
  Time-Step Critical Elements
  ***************************
  Link WS02006252WS02006251 (49.66%)
  Link WS02006238WS02006235 (17.43%)
  Link WS02004404WS02004405 (12.31%)
  Link YS02001791YS02001793 (4.73%)
  Link WS02006235WS02006234 (4.35%)
  
  
  ********************************
  Highest Flow Instability Indexes
  ********************************
  Link WS02006113WS02006111 (45)
  Link WS02006111WS02006112 (20)
  Link WS02004404WS02004405 (17)
  Link WS02004403WS02004404 (15)
  Link WS02006256WS02006235 (15)
  
  
  *********************************
  Most Frequent Nonconverging Nodes
  *********************************
  Node CC-1 (10.55%)
  Node CC-2 (10.55%)
  Node JK-1 (10.55%)
  Node JK-2 (10.55%)
  Node WSC (10.55%)
  
  
  *************************
  Routing Time Step Summary
  *************************
  Minimum Time Step           :     0.01 sec
  Average Time Step           :     1.93 sec
  Maximum Time Step           :     7.04 sec
  % of Time in Steady State   :     0.00
  Average Iterations per Step :     3.02
  % of Steps Not Converging   :    10.55
  Time Step Frequencies       :
     30.000 - 13.228 sec      :     0.00 %
     13.228 -  5.833 sec      :     8.45 %
      5.833 -  2.572 sec      :    17.55 %
      2.572 -  1.134 sec      :    18.81 %
      1.134 -  0.500 sec      :    55.19 %
  
  
  ***************************
  Subcatchment Runoff Summary
  ***************************
  
  ------------------------------------------------------------------------------------------------------------------------------
                            Total      Total      Total      Total     Imperv       Perv      Total       Total     Peak  Runoff
                           Precip      Runon       Evap      Infil     Runoff     Runoff     Runoff      Runoff   Runoff   Coeff
  Subcatchment                 mm         mm         mm         mm         mm         mm         mm    10^6 ltr      LPS
  ------------------------------------------------------------------------------------------------------------------------------
  sub60                     59.28       0.00       0.00       1.82      50.96       5.30      56.26        0.74   510.21   0.949
  sub61                     59.28       0.00       0.00       2.64      48.07       7.44      55.51        1.02   709.55   0.936
  sub62                     59.28       0.00       0.00       1.21      53.25       3.53      56.78        1.56   997.70   0.958
  sub63                     59.28       0.00       0.00       4.92      41.12      12.28      53.39        1.21   807.96   0.901
  sub64                     59.28       0.00       0.00       2.48      49.18       6.41      55.59        1.34   817.06   0.938
  sub65                     59.28       0.00       0.00       2.15      50.32       5.56      55.88        1.54   911.82   0.943
  sub66                     59.28       0.00       0.00       6.11      41.01      11.08      52.09        2.43  1224.31   0.879
  sub67                     59.28       0.00       0.00       1.16      53.29       3.58      56.88        1.06   761.37   0.959
  sub68                     59.28       0.00       0.00       2.19      49.79       6.11      55.90        1.54  1024.81   0.943
  sub69                     59.28       0.00       0.00       1.98      50.27       6.92      57.19        2.12  1210.70   0.965
  sub70                     59.28       0.00       0.00       6.60      38.96      13.55      52.51        1.52   687.14   0.886
  sub71                     59.28       0.00       0.00       1.25      53.21       3.50      56.70        1.48   880.61   0.957
  sub72                     59.28       0.00       0.00       1.11      53.72       3.04      56.76        0.78   430.02   0.958
  
  
  ******************
  Node Depth Summary
  ******************
  
  ---------------------------------------------------------------------------------
                                 Average  Maximum  Maximum  Time of Max    Reported
                                   Depth    Depth      HGL   Occurrence   Max Depth
  Node                 Type       Meters   Meters   Meters  days hr:min      Meters
  ---------------------------------------------------------------------------------
  WS02003060           JUNCTION     0.23     0.38     5.31     0  03:28        0.38
  WS02003066           JUNCTION     0.19     0.30     5.85     0  03:28        0.30
  WS02003067           JUNCTION     0.50     0.70     6.02     0  03:27        0.70
  WS02003069           JUNCTION     0.25     0.43     5.01     0  03:29        0.43
  WS02003072           JUNCTION     0.32     0.50     4.87     0  03:29        0.50
  WS02003073           JUNCTION     0.18     0.30     4.36     0  03:30        0.30
  WS02004401           JUNCTION     0.59     0.87     6.87     0  03:25        0.87
  WS02004402           JUNCTION     0.62     0.90     6.86     0  03:26        0.90
  WS02004403           JUNCTION     0.65     0.92     6.85     0  03:26        0.91
  WS02004404           JUNCTION     0.72     1.01     6.86     0  03:25        1.00
  WS02004405           JUNCTION     0.71     0.97     6.82     0  03:25        0.96
  WS02004406           JUNCTION     0.72     0.96     6.79     0  03:26        0.95
  WS02004407           JUNCTION     0.17     0.30     6.61     0  03:26        0.29
  WS02004409           JUNCTION     0.38     0.66     6.43     0  03:26        0.66
  WS02004410           JUNCTION     0.41     0.68     6.40     0  03:27        0.68
  WS02004411           JUNCTION     0.43     0.69     6.37     0  03:27        0.69
  WS02004412           JUNCTION     0.45     0.70     6.34     0  03:27        0.69
  WS02004413           JUNCTION     0.61     0.86     6.33     0  03:27        0.86
  WS02006109           JUNCTION     0.64     1.19     7.81     0  02:47        0.98
  WS02006110           JUNCTION     0.64     1.29     7.88     0  02:41        0.94
  WS02006111           JUNCTION     0.17     0.29     6.99     0  03:22        0.29
  WS02006112           JUNCTION     0.74     1.08     6.96     0  02:40        1.07
  WS02006113           JUNCTION     0.26     0.46     7.35     0  03:02        0.46
  WS02006115           JUNCTION     0.47     0.77     6.91     0  03:25        0.77
  WS02006116           JUNCTION     0.56     0.85     6.89     0  03:25        0.85
  WS02006228           JUNCTION     0.62     1.17     7.82     0  02:47        1.01
  WS02006229           JUNCTION     0.59     1.18     7.87     0  02:41        1.01
  WS02006230           JUNCTION     0.59     1.35     8.09     0  02:41        1.11
  WS02006231           JUNCTION     0.40     1.34     8.46     0  03:16        0.86
  WS02006232           JUNCTION     0.53     1.43     8.47     0  03:16        1.28
  WS02006234           JUNCTION     0.45     1.49     8.65     0  02:25        1.49
  WS02006235           JUNCTION     0.48     1.63     8.79     0  02:25        1.63
  WS02006238           JUNCTION     0.51     1.69     8.83     0  02:25        1.69
  WS02006239           JUNCTION     0.47     1.66     8.87     0  02:25        1.66
  WS02006240           JUNCTION     0.43     1.58     8.87     0  02:25        1.58
  WS02006242           JUNCTION     0.50     1.55     8.82     0  02:25        1.55
  WS02006243           JUNCTION     0.41     1.36     8.78     0  02:25        1.36
  WS02006245           JUNCTION     0.41     1.30     8.79     0  02:25        1.30
  WS02006247           JUNCTION     0.43     1.26     8.76     0  02:25        1.26
  WS02006248           JUNCTION     0.39     1.10     8.69     0  02:25        1.10
  WS02006249           JUNCTION     0.42     1.09     8.69     0  02:23        1.09
  WS02006251           JUNCTION     0.42     1.54     9.21     0  03:16        1.54
  WS02006252           JUNCTION     0.32     1.50     9.74     0  00:00        1.00
  WS02006256           JUNCTION     0.99     2.35     9.28     0  00:00        2.35
  WSF200               JUNCTION     0.16     0.29     5.52     0  03:28        0.29
  YS02001580           JUNCTION     0.09     1.05     9.59     0  02:13        0.80
  YS02001583           JUNCTION     0.12     1.14     9.64     0  02:13        0.83
  YS02001586           JUNCTION     0.21     1.13     9.30     0  02:13        1.13
  YS02001590           JUNCTION     0.31     1.40     9.26     0  02:13        1.39
  YS02001593           JUNCTION     0.24     1.33     9.19     0  02:13        1.32
  YS02001596           JUNCTION     0.32     1.69     9.10     0  02:13        1.66
  YS02001600           JUNCTION     0.40     1.87     9.00     0  02:13        1.87
  YS02001601           JUNCTION     0.60     2.06     8.90     0  02:12        2.06
  YS02001602           JUNCTION     0.51     1.87     8.77     0  02:13        1.87
  YS02001605           JUNCTION     0.47     1.78     8.68     0  02:13        1.78
  YS02001607           JUNCTION     0.45     1.65     8.50     0  02:25        1.65
  YS02001610           JUNCTION     0.50     1.68     8.48     0  02:13        1.68
  YS02001613           JUNCTION     0.45     1.70     8.54     0  02:17        1.70
  YS02001616           JUNCTION     0.38     1.61     8.52     0  02:17        1.61
  YS02001619           JUNCTION     0.36     1.61     8.54     0  02:17        1.61
  YS02001622           JUNCTION     0.35     1.62     8.52     0  02:25        1.62
  YS02001625           JUNCTION     0.61     1.78     8.38     0  02:17        1.78
  YS02001629           JUNCTION     0.47     1.85     8.40     0  02:19        1.85
  YS02001633           JUNCTION     0.55     2.08     8.53     0  02:19        2.08
  YS02001641           JUNCTION     0.53     2.10     8.54     0  02:19        2.10
  YS02001644           JUNCTION     0.52     1.92     8.35     0  02:19        1.92
  YS02001647           JUNCTION     0.29     1.81     8.42     0  02:24        1.81
  YS02001649           JUNCTION     0.33     2.02     8.41     0  02:24        2.02
  YS02001652           JUNCTION     0.21     2.16     8.76     0  02:19        1.89
  YS02001655           JUNCTION     0.16     2.20     9.05     0  02:19        1.67
  YS02001658           JUNCTION     0.11     1.38     8.52     0  02:24        1.38
  YS02001661           JUNCTION     0.15     1.15     8.55     0  02:24        1.06
  YS02001664           JUNCTION     0.06     0.49     8.41     0  02:24        0.48
  YS02001745           JUNCTION     0.06     0.77     8.28     0  02:24        0.73
  YS02001748           JUNCTION     0.10     1.70     8.77     0  02:22        1.70
  YS02001751           JUNCTION     0.13     2.00     8.88     0  02:22        2.00
  YS02001754           JUNCTION     0.18     2.04     8.65     0  02:22        2.04
  YS02001757           JUNCTION     0.35     2.10     8.36     0  02:25        2.10
  YS02001759           JUNCTION     0.28     2.21     8.57     0  02:25        2.21
  YS02001762           JUNCTION     0.27     2.15     8.55     0  02:25        2.15
  YS02001765           JUNCTION     0.25     2.10     8.55     0  02:25        2.10
  YS02001767           JUNCTION     0.25     2.03     8.52     0  02:25        2.03
  YS02001770           JUNCTION     0.27     1.95     8.44     0  02:18        1.95
  YS02001774           JUNCTION     0.33     2.04     8.46     0  02:24        2.04
  YS02001779           JUNCTION     0.16     1.68     8.37     0  02:18        1.68
  YS02001783           JUNCTION     0.26     1.41     7.55     0  02:18        1.23
  YS02001784           JUNCTION     0.27     1.21     7.28     0  02:18        1.10
  YS02001786           JUNCTION     0.23     0.94     6.97     0  02:18        0.87
  YS02001788           JUNCTION     0.16     0.62     6.60     0  02:24        0.62
  YS02001790           JUNCTION     0.20     0.73     6.37     0  02:25        0.72
  YS02001791           JUNCTION     0.12     0.44     5.91     0  02:26        0.42
  YS02001793           JUNCTION     0.06     0.29     5.12     0  02:20        0.28
  YS02001882           JUNCTION     0.32     1.83     8.55     0  02:25        1.83
  YS02001884           JUNCTION     0.41     1.93     8.55     0  02:25        1.93
  YS02001887           JUNCTION     0.49     1.95     8.49     0  02:25        1.95
  YS02001890           JUNCTION     0.52     1.81     8.32     0  02:16        1.81
  YS02001895           JUNCTION     0.29     1.60     8.35     0  02:24        1.60
  YS02001898           JUNCTION     0.29     1.65     8.38     0  02:25        1.65
  YS02001901           JUNCTION     0.41     1.70     8.31     0  02:25        1.70
  YS02001904           JUNCTION     0.39     1.68     8.31     0  02:25        1.68
  YS02001907           JUNCTION     0.71     1.96     8.25     0  02:18        1.96
  YS02001910           JUNCTION     0.51     2.10     8.61     0  02:25        2.10
  YS02001915           JUNCTION     0.32     2.00     8.72     0  02:25        2.00
  YS02001918           JUNCTION     0.17     1.81     8.88     0  02:19        1.75
  YS02001920           JUNCTION     0.25     2.14     9.15     0  02:19        1.67
  YS02001923           JUNCTION     0.12     2.03     9.29     0  02:19        1.26
  YS02001926           JUNCTION     0.16     1.90     9.35     0  02:19        1.08
  YS02001929           JUNCTION     0.09     1.78     9.47     0  02:19        0.84
  YS02006553           JUNCTION     0.71     2.16     8.45     0  02:25        2.16
  YS02006556           JUNCTION     0.68     2.33     8.64     0  02:25        2.33
  YS02006558           JUNCTION     0.73     2.42     8.68     0  02:25        2.42
  YS02006561           JUNCTION     0.16     1.22     7.88     0  02:18        0.89
  YS02163301           JUNCTION     0.50     2.03     8.55     0  02:19        2.03
  YS02163601           JUNCTION     0.59     2.08     8.48     0  02:19        2.08
  YS02164001           JUNCTION     0.52     2.10     8.56     0  02:19        2.10
  CC-1                 OUTFALL      0.00     0.00     0.00     0  00:00        0.00
  CC-2                 OUTFALL      0.00     0.00     0.00     0  00:00        0.00
  JK-1                 OUTFALL      0.00     0.00     0.00     0  00:00        0.00
  JK-2                 OUTFALL      0.00     0.00     0.00     0  00:00        0.00
  WSC                  OUTFALL      0.18     0.30     0.97     0  03:30        0.30
  CC-storage           STORAGE      0.83     1.53     7.03     0  02:46        1.53
  JK-storage           STORAGE      1.88     4.23     5.03     0  02:20        4.22
  
  
  *******************
  Node Inflow Summary
  *******************
  
  -------------------------------------------------------------------------------------------------
                                  Maximum  Maximum                  Lateral       Total        Flow
                                  Lateral    Total  Time of Max      Inflow      Inflow     Balance
                                   Inflow   Inflow   Occurrence      Volume      Volume       Error
  Node                 Type           LPS      LPS  days hr:min    10^6 ltr    10^6 ltr     Percent
  -------------------------------------------------------------------------------------------------
  WS02003060           JUNCTION     16.53   549.50     0  03:28       0.476        4.96       0.050
  WS02003066           JUNCTION      0.00   532.80     0  03:28           0        4.48       0.032
  WS02003067           JUNCTION      0.00   532.70     0  03:27           0        4.49       0.095
  WS02003069           JUNCTION      0.32   549.90     0  03:28     0.00922        4.96       0.084
  WS02003072           JUNCTION      0.00   549.46     0  03:29           0        4.96       0.145
  WS02003073           JUNCTION      1.82   550.83     0  03:29      0.0524        5.01       0.120
  WS02004401           JUNCTION      0.00   537.56     0  02:43           0        4.59       0.229
  WS02004402           JUNCTION      0.00   537.04     0  02:46           0        4.58       0.231
  WS02004403           JUNCTION      0.00   537.02     0  02:43           0        4.57       0.225
  WS02004404           JUNCTION      0.16   548.10     0  03:26     0.00467        4.56       0.229
  WS02004405           JUNCTION      0.04   591.79     0  03:26      0.0011        4.55       0.206
  WS02004406           JUNCTION      0.00   540.48     0  02:46           0        4.54       0.463
  WS02004407           JUNCTION      0.00   535.99     0  03:26           0        4.52       0.029
  WS02004409           JUNCTION      0.00   535.62     0  03:26           0        4.52       0.066
  WS02004410           JUNCTION      0.00   534.60     0  03:26           0        4.52       0.102
  WS02004411           JUNCTION      0.00   533.99     0  03:27           0        4.51       0.129
  WS02004412           JUNCTION      0.00   533.35     0  03:27           0        4.51       0.171
  WS02004413           JUNCTION      0.00   532.99     0  03:27           0         4.5       0.302
  WS02006109           JUNCTION      1.23   557.27     0  02:41      0.0354        4.64       0.214
  WS02006110           JUNCTION      0.00   557.51     0  02:41           0        4.63       0.154
  WS02006111           JUNCTION      0.00   561.94     0  03:02           0        4.62       0.021
  WS02006112           JUNCTION      0.00   542.79     0  03:22           0        4.62       0.390
  WS02006113           JUNCTION      0.00   567.24     0  02:41           0        4.62       0.043
  WS02006115           JUNCTION      0.00   548.64     0  02:39           0         4.6       0.149
  WS02006116           JUNCTION      0.00   540.16     0  02:43           0         4.6       0.133
  WS02006228           JUNCTION      0.00   556.12     0  02:41           0        4.61       0.070
  WS02006229           JUNCTION      0.00   555.97     0  02:41           0        4.61       0.115
  WS02006230           JUNCTION     10.28   598.21     0  03:16       0.296        4.62       0.081
  WS02006231           JUNCTION      0.00   577.74     0  03:16           0        4.32       0.036
  WS02006232           JUNCTION      0.00   575.51     0  02:46           0        4.33       0.234
  WS02006234           JUNCTION      0.00   572.08     0  02:46           0        4.32      -0.323
  WS02006235           JUNCTION      0.00   565.94     0  02:46           0        4.43       0.350
  WS02006238           JUNCTION      0.00   425.05     0  03:15           0         3.5      -0.196
  WS02006239           JUNCTION      0.00   424.17     0  02:50           0        3.44      -0.143
  WS02006240           JUNCTION      0.00   423.05     0  03:15           0         3.4      -0.070
  WS02006242           JUNCTION      0.00   423.71     0  03:15           0        3.38      -0.010
  WS02006243           JUNCTION      0.00   423.03     0  03:15           0        3.38      -0.071
  WS02006245           JUNCTION      0.00   423.75     0  03:15           0        3.39       0.410
  WS02006247           JUNCTION      0.00   423.68     0  03:15           0        3.39       0.029
  WS02006248           JUNCTION      0.00   424.41     0  03:15           0        3.39       0.064
  WS02006249           JUNCTION      0.00   459.02     0  00:00           0        3.55       0.353
  WS02006251           JUNCTION      0.08   409.63     0  02:23     0.00222        3.55       0.003
  WS02006252           JUNCTION      0.00   400.00     0  00:00           0        3.53      -0.274
  WS02006256           JUNCTION      0.00   300.00     0  00:00           0        1.28      -2.458
  WSF200               JUNCTION      0.00   532.85     0  03:28           0        4.48       0.012
  YS02001580           JUNCTION      0.00    75.85     0  02:13           0     0.00411       0.874
  YS02001583           JUNCTION      0.00   126.98     0  02:12           0      0.0156      -4.051
  YS02001586           JUNCTION    687.14   687.14     0  02:26        1.52        1.53       0.063
  YS02001590           JUNCTION      0.00   318.09     0  02:24           0        1.26      -0.038
  YS02001593           JUNCTION      0.00   317.94     0  02:24           0        1.26      -0.002
  YS02001596           JUNCTION      0.00   317.97     0  02:35           0        1.26      -0.017
  YS02001600           JUNCTION      0.00   318.06     0  02:35           0        1.26       0.016
  YS02001601           JUNCTION   1210.70  1528.53     0  02:25        2.12        3.37       0.014
  YS02001602           JUNCTION      0.00   493.25     0  02:12           0        2.23       0.018
  YS02001605           JUNCTION      0.00   493.24     0  02:12           0        2.13       0.030
  YS02001607           JUNCTION      0.00   493.66     0  02:12           0        2.13       0.090
  YS02001610           JUNCTION      0.00   649.82     0  02:26           0        2.27       0.093
  YS02001613           JUNCTION      0.00   500.03     0  02:12           0        1.89       0.079
  YS02001616           JUNCTION      0.00   499.92     0  02:12           0        1.89       0.022
  YS02001619           JUNCTION   1224.31  1224.31     0  02:26        2.43        4.18      -0.003
  YS02001622           JUNCTION      0.00   928.18     0  02:17           0        4.04       0.004
  YS02001625           JUNCTION      0.00  1279.84     0  02:25           0        4.18       0.212
  YS02001629           JUNCTION      0.00   928.54     0  02:17           0        3.44       0.031
  YS02001633           JUNCTION    912.02  1352.90     0  02:17        1.54        4.84       0.070
  YS02001641           JUNCTION      0.00  1352.83     0  02:17           0        4.69       0.056
  YS02001644           JUNCTION    817.10  1735.46     0  02:17        1.34        6.02       0.054
  YS02001647           JUNCTION      0.00  1735.34     0  02:17           0        5.79       0.009
  YS02001649           JUNCTION      0.00  1968.63     0  02:18           0        7.01       0.004
  YS02001652           JUNCTION      0.00   834.14     0  02:25           0        1.22      -0.078
  YS02001655           JUNCTION      0.15   833.86     0  02:25     0.00443        1.22       0.013
  YS02001658           JUNCTION      0.00   833.23     0  02:25           0        1.21      -0.003
  YS02001661           JUNCTION      0.00   883.88     0  02:24           0        1.21      -0.008
  YS02001664           JUNCTION    807.96   807.96     0  02:25        1.21        1.21      -0.007
  YS02001745           JUNCTION    510.21   510.21     0  02:25        0.74        0.74       0.170
  YS02001748           JUNCTION      0.04   525.85     0  02:25      0.0013        0.74      -0.308
  YS02001751           JUNCTION      0.01   522.57     0  02:25    0.000317       0.742       0.091
  YS02001754           JUNCTION      0.26   521.34     0  02:25     0.00749       0.752      -0.163
  YS02001757           JUNCTION      0.00  3343.91     0  02:24           0        10.3       0.037
  YS02001759           JUNCTION    709.59  1377.54     0  02:24        1.02        2.51      -0.004
  YS02001762           JUNCTION      0.00   754.25     0  02:22           0        1.49       0.013
  YS02001765           JUNCTION      0.00   755.16     0  02:22           0        1.49       0.014
  YS02001767           JUNCTION      0.54   756.76     0  02:22      0.0154        1.49       0.013
  YS02001770           JUNCTION    997.86   997.86     0  02:25        1.56         1.6      -0.003
  YS02001774           JUNCTION      0.00   366.23     0  02:25           0       0.149       0.792
  YS02001779           JUNCTION      0.01   367.54     0  02:25    0.000144       0.105      -0.043
  YS02001783           JUNCTION      0.00  1169.97     0  02:25           0        3.88       0.007
  YS02001784           JUNCTION      1.06  1171.00     0  02:25      0.0305        3.91       0.013
  YS02001786           JUNCTION      0.06  1171.87     0  02:25     0.00162        3.91       0.019
  YS02001788           JUNCTION      0.07  1169.84     0  02:24     0.00204        3.91       0.007
  YS02001790           JUNCTION      0.15  1173.08     0  02:24     0.00446        3.91       0.020
  YS02001791           JUNCTION      0.00  1291.14     0  02:22           0        3.91      -0.022
  YS02001793           JUNCTION      0.00  1254.47     0  02:26           0        3.91       0.005
  YS02001882           JUNCTION      0.00    44.51     0  02:16           0      0.0125       4.469
  YS02001884           JUNCTION      0.00    43.41     0  02:16           0      0.0482       5.304
  YS02001887           JUNCTION    761.82   773.12     0  02:25        1.07         1.1       0.393
  YS02001890           JUNCTION      0.00   775.26     0  02:25           0        1.06       0.490
  YS02001895           JUNCTION      0.00   517.95     0  02:25           0       0.999       0.149
  YS02001898           JUNCTION      0.00   517.45     0  02:27           0       0.998       0.010
  YS02001901           JUNCTION      0.00   517.55     0  02:27           0           1       0.319
  YS02001904           JUNCTION      0.00   517.53     0  02:27           0           1       0.267
  YS02001907           JUNCTION      0.00  1844.50     0  02:25           0        3.34       0.517
  YS02001910           JUNCTION      0.00  1329.83     0  02:25           0        2.35       0.311
  YS02001915           JUNCTION    880.63  1329.20     0  02:25        1.48        2.38       0.064
  YS02001918           JUNCTION      0.00   450.87     0  02:25           0       0.913       0.001
  YS02001920           JUNCTION      2.87   450.37     0  02:25      0.0827       0.899       0.113
  YS02001923           JUNCTION      0.04   448.54     0  02:25     0.00109       0.804      -0.049
  YS02001926           JUNCTION      0.05   447.60     0  02:25      0.0015       0.789       0.009
  YS02001929           JUNCTION    430.02   430.02     0  02:26       0.781       0.781      -0.049
  YS02006553           JUNCTION      0.00   799.96     0  02:37           0        2.36       0.496
  YS02006556           JUNCTION      0.00   800.17     0  02:37           0        2.37       0.327
  YS02006558           JUNCTION   1025.69  1165.62     0  02:24        1.56        3.91       0.088
  YS02006561           JUNCTION      0.00  1167.29     0  02:25           0        3.88       0.001
  YS02163301           JUNCTION      0.00   931.71     0  02:17           0        3.44       0.042
  YS02163601           JUNCTION      0.11  1352.90     0  02:17     0.00317        4.68       0.106
  YS02164001           JUNCTION      0.00  1353.03     0  02:17           0        4.68       0.046
  CC-1                 OUTFALL       0.00   683.00     0  00:00           0        3.92       0.000
  CC-2                 OUTFALL       0.00   683.00     0  00:00           0        3.68       0.000
  JK-1                 OUTFALL       0.00  1000.00     0  00:00           0        1.97       0.000
  JK-2                 OUTFALL       0.00  1000.00     0  00:00           0       0.798       0.000
  WSC                  OUTFALL       0.00   550.15     0  03:30           0           5       0.000
  CC-storage           STORAGE       0.00  3347.19     0  02:24           0        12.5      -0.238
  JK-storage           STORAGE       0.00  1288.50     0  02:26           0        4.07      -0.425
  
  
  **********************
  Node Surcharge Summary
  **********************
  
  Surcharging occurs when water rises above the top of the highest conduit.
  ---------------------------------------------------------------------
                                               Max. Height   Min. Depth
                                   Hours       Above Crown    Below Rim
  Node                 Type      Surcharged         Meters       Meters
  ---------------------------------------------------------------------
  WS02004404           JUNCTION        0.01          0.005        2.775
  WS02006109           JUNCTION        1.41          0.370        1.450
  WS02006110           JUNCTION        0.46          0.383        1.467
  WS02006112           JUNCTION        0.62          0.076        1.604
  WS02006228           JUNCTION        1.40          0.339        1.861
  WS02006229           JUNCTION        1.43          0.377        2.073
  WS02006230           JUNCTION        0.48          0.270        1.300
  WS02006231           JUNCTION        0.56          0.626        0.904
  WS02006232           JUNCTION        1.49          0.732        0.748
  WS02006234           JUNCTION        0.76          0.774        0.466
  WS02006235           JUNCTION        1.40          0.917        0.373
  WS02006238           JUNCTION        1.46          0.967        0.463
  WS02006239           JUNCTION        1.42          0.918        0.372
  WS02006240           JUNCTION        1.43          0.866        0.524
  WS02006242           JUNCTION        1.50          0.820        0.000
  WS02006243           JUNCTION        1.44          0.650        0.120
  WS02006245           JUNCTION        1.43          0.590        0.260
  WS02006247           JUNCTION        1.45          0.545        0.215
  WS02006248           JUNCTION        1.42          0.380        0.000
  WS02006249           JUNCTION        1.43          0.390        0.000
  WS02006251           JUNCTION        0.61          0.511        0.669
  WS02006252           JUNCTION        1.78          1.100        0.000
  WS02006256           JUNCTION        6.96          2.050        0.000
  YS02001580           JUNCTION        0.55          0.450        0.000
  YS02001583           JUNCTION        0.56          0.500        0.000
  YS02001586           JUNCTION        0.66          0.510        0.000
  YS02001590           JUNCTION        0.74          0.750        0.000
  YS02001593           JUNCTION        0.74          0.707        0.133
  YS02001596           JUNCTION        0.86          0.955        0.115
  YS02001600           JUNCTION        1.02          1.190        0.000
  YS02001601           JUNCTION        1.37          1.440        0.000
  YS02001602           JUNCTION        1.25          1.270        0.000
  YS02001605           JUNCTION        1.19          1.180        0.000
  YS02001607           JUNCTION        0.71          0.649        0.031
  YS02001610           JUNCTION        0.73          0.680        0.000
  YS02001613           JUNCTION        0.70          0.700        0.000
  YS02001616           JUNCTION        0.66          0.610        0.000
  YS02001619           JUNCTION        0.64          0.610        0.000
  YS02001622           JUNCTION        0.64          0.620        0.000
  YS02001625           JUNCTION        0.83          0.780        0.000
  YS02001629           JUNCTION        0.59          0.470        0.000
  YS02001633           JUNCTION        0.84          1.060        0.000
  YS02001641           JUNCTION        0.76          1.100        0.000
  YS02001644           JUNCTION        0.72          0.920        0.000
  YS02001647           JUNCTION        0.50          0.808        0.092
  YS02001649           JUNCTION        0.59          1.017        0.033
  YS02001652           JUNCTION        0.42          1.130        0.000
  YS02001655           JUNCTION        0.29          1.200        0.000
  YS02001658           JUNCTION        0.17          0.380        0.920
  YS02001661           JUNCTION        0.01          0.080        1.310
  YS02001748           JUNCTION        0.10          0.617        0.573
  YS02001751           JUNCTION        0.21          1.003        0.197
  YS02001754           JUNCTION        0.33          0.988        0.162
  YS02001757           JUNCTION        0.64          1.101        0.109
  YS02001759           JUNCTION        0.55          1.210        0.000
  YS02001762           JUNCTION        0.52          1.150        0.000
  YS02001765           JUNCTION        0.47          1.100        0.000
  YS02001767           JUNCTION        0.45          1.030        0.000
  YS02001770           JUNCTION        0.43          0.920        0.000
  YS02001774           JUNCTION        0.50          1.041        0.009
  YS02001779           JUNCTION        0.33          0.680        0.000
  YS02001783           JUNCTION        0.49          0.610        0.990
  YS02001784           JUNCTION        0.47          0.412        1.078
  YS02001786           JUNCTION        0.36          0.138        1.292
  YS02001882           JUNCTION        0.43          0.830        0.000
  YS02001884           JUNCTION        0.44          0.870        0.000
  YS02001887           JUNCTION        0.48          0.900        0.050
  YS02001890           JUNCTION        0.49          0.760        0.000
  YS02001895           JUNCTION        0.42          0.600        0.150
  YS02001898           JUNCTION        0.41          0.618        0.122
  YS02001901           JUNCTION        0.47          0.701        0.169
  YS02001904           JUNCTION        0.46          0.682        0.168
  YS02001907           JUNCTION        0.74          0.950        0.000
  YS02001910           JUNCTION        0.52          1.100        0.000
  YS02001915           JUNCTION        0.43          1.000        0.000
  YS02001918           JUNCTION        0.35          0.810        0.000
  YS02001920           JUNCTION        0.36          1.140        0.000
  YS02001923           JUNCTION        0.05          0.820        0.000
  YS02001926           JUNCTION        0.11          0.900        0.000
  YS02001929           JUNCTION        0.01          0.780        0.000
  YS02006553           JUNCTION        0.76          1.162        0.028
  YS02006556           JUNCTION        0.62          1.286        0.064
  YS02006558           JUNCTION        0.61          1.318        0.082
  YS02006561           JUNCTION        0.31          0.417        0.733
  YS02163301           JUNCTION        0.82          1.030        0.000
  YS02163601           JUNCTION        0.88          1.080        0.000
  YS02164001           JUNCTION        0.77          1.100        0.000
  
  
  *********************
  Node Flooding Summary
  *********************
  
  Flooding refers to all water that overflows a node, whether it ponds or not.
  --------------------------------------------------------------------------
                                                             Total   Maximum
                                 Maximum   Time of Max       Flood    Ponded
                        Hours       Rate    Occurrence      Volume     Depth
  Node                 Flooded       LPS   days hr:min    10^6 ltr    Meters
  --------------------------------------------------------------------------
  WS02006242              0.01      0.15      0  02:25       0.000     0.000
  WS02006248              0.01      5.03      0  02:25       0.000     0.000
  WS02006249              0.59    114.60      0  02:23       0.142     0.000
  WS02006252              0.01    245.63      0  00:00       0.000     0.000
  WS02006256              1.18    293.19      0  00:00       0.359     0.000
  YS02001580              0.01     40.43      0  02:13       0.000     0.000
  YS02001583              0.01     97.58      0  02:13       0.000     0.000
  YS02001586              0.42    369.46      0  02:26       0.261     0.000
  YS02001590              0.01      3.64      0  02:13       0.000     0.000
  YS02001600              0.01      1.05      0  02:13       0.000     0.000
  YS02001601              0.60   1130.69      0  02:25       1.146     0.000
  YS02001602              0.46     62.05      0  02:38       0.093     0.000
  YS02001605              0.01      0.61      0  02:13       0.000     0.000
  YS02001610              0.40    649.68      0  02:26       0.515     0.000
  YS02001613              0.01      0.51      0  02:25       0.000     0.000
  YS02001616              0.01      0.72      0  02:25       0.000     0.000
  YS02001619              0.01      1.91      0  02:25       0.000     0.000
  YS02001622              0.01      0.18      0  02:25       0.000     0.000
  YS02001625              0.37   1279.50      0  02:25       0.873     0.000
  YS02001629              0.09     89.37      0  02:22       0.017     0.000
  YS02001633              0.01      3.64      0  02:19       0.000     0.000
  YS02001641              0.01      3.65      0  02:19       0.000     0.000
  YS02001644              0.15    733.83      0  02:25       0.215     0.000
  YS02001652              0.01     55.83      0  02:19       0.000     0.000
  YS02001655              0.01    232.00      0  02:19       0.000     0.000
  YS02001759              0.01      0.60      0  02:25       0.000     0.000
  YS02001762              0.01      0.85      0  02:25       0.000     0.000
  YS02001765              0.01      0.71      0  02:25       0.000     0.000
  YS02001767              0.01      0.45      0  02:25       0.000     0.000
  YS02001770              0.01     75.48      0  02:18       0.000     0.000
  YS02001779              0.12    367.19      0  02:25       0.087     0.000
  YS02001882              0.01      0.44      0  02:25       0.000     0.000
  YS02001884              0.01      0.31      0  02:25       0.000     0.000
  YS02001890              0.14    261.23      0  02:25       0.059     0.000
  YS02001907              0.30   1709.55      0  02:25       0.976     0.000
  YS02001910              0.01      0.40      0  02:25       0.000     0.000
  YS02001915              0.01      0.87      0  02:25       0.000     0.000
  YS02001918              0.01    103.54      0  02:19       0.001     0.000
  YS02001920              0.01     45.70      0  02:19       0.000     0.000
  YS02001923              0.01    123.92      0  02:19       0.000     0.000
  YS02001926              0.01    236.94      0  02:19       0.000     0.000
  YS02001929              0.01    280.07      0  02:19       0.001     0.000
  YS02163301              0.01      1.87      0  02:19       0.000     0.000
  YS02163601              0.01      5.73      0  02:19       0.000     0.000
  YS02164001              0.01     11.10      0  02:19       0.000     0.000
  
  
  **********************
  Storage Volume Summary
  **********************
  
  ------------------------------------------------------------------------------------------------
                         Average    Avg   Evap  Exfil     Maximum    Max    Time of Max    Maximum
                          Volume   Pcnt   Pcnt   Pcnt      Volume   Pcnt     Occurrence    Outflow
  Storage Unit           1000 m³   Full   Loss   Loss     1000 m³   Full    days hr:min        LPS
  ------------------------------------------------------------------------------------------------
  CC-storage               2.302   35.9    0.0    0.0       4.267   66.6       0  02:46    1783.53
  JK-storage               0.095   32.4    0.0    0.0       0.213   73.0       0  02:20    2300.00
  
  
  ***********************
  Outfall Loading Summary
  ***********************
  
  -----------------------------------------------------------
                         Flow       Avg       Max       Total
                         Freq      Flow      Flow      Volume
  Outfall Node           Pcnt       LPS       LPS    10^6 ltr
  -----------------------------------------------------------
  CC-1                  24.26    683.00    683.00       3.919
  CC-2                  26.22    683.00    683.00       3.675
  JK-1                   9.39   1000.00   1000.00       1.966
  JK-2                   4.03   1000.00   1000.00       0.798
  WSC                   99.96    239.27    550.15       4.999
  -----------------------------------------------------------
  System                32.77   3605.27   3677.87      15.358
  
  
  ********************
  Link Flow Summary
  ********************
  
  -----------------------------------------------------------------------------
                                 Maximum  Time of Max   Maximum    Max/    Max/
                                  |Flow|   Occurrence   |Veloc|    Full    Full
  Link                 Type          LPS  days hr:min     m/sec    Flow   Depth
  -----------------------------------------------------------------------------
  1                    CONDUIT    550.15     0  03:30      2.82    0.19    0.30
  WS02003060WS02003069 CONDUIT    549.58     0  03:28      1.64    0.22    0.34
  WS02003066WSF200     CONDUIT    532.85     0  03:28      2.85    0.09    0.22
  WS02003067WS02003066 CONDUIT    532.80     0  03:28      1.20    0.17    0.41
  WS02003069WS02003072 CONDUIT    549.46     0  03:29      1.37    0.26    0.39
  WS02003072WS02003073 CONDUIT    549.01     0  03:29      1.43    1.19    0.37
  WS02004401WS02004402 CONDUIT    537.04     0  02:46      0.98    0.64    0.89
  WS02004402WS02004403 CONDUIT    537.02     0  02:43      0.97    0.77    0.91
  WS02004403WS02004404 CONDUIT    547.93     0  03:26      0.92    0.40    0.96
  WS02004404WS02004405 CONDUIT    591.76     0  03:26      1.08    5.80    0.98
  WS02004405WS02004406 CONDUIT    540.48     0  02:46      0.99    1.07    0.96
  WS02004406WS02004407 CONDUIT    535.99     0  03:26      1.04    0.24    0.63
  WS02004407WS02004409 CONDUIT    535.62     0  03:26      1.48    0.19    0.48
  WS02004409WS02004410 CONDUIT    534.60     0  03:26      0.97    0.69    0.67
  WS02004410WS02004411 CONDUIT    533.99     0  03:27      0.94    0.73    0.68
  WS02004411WS02004412 CONDUIT    533.35     0  03:27      0.92    0.76    0.69
  WS02004412WS02004413 CONDUIT    532.99     0  03:27      0.82    0.36    0.78
  WS02004413WS02003067 CONDUIT    532.70     0  03:27      1.11    0.23    0.59
  WS02006109WS02006110 CONDUIT    557.51     0  02:41      1.11    1.07    1.00
  WS02006110WS02006113 CONDUIT    567.24     0  02:41      1.37    0.52    0.79
  WS02006111WS02006112 CONDUIT    542.79     0  03:22      1.81    0.26    0.67
  WS02006112WS02006115 CONDUIT    548.64     0  02:39      0.78    0.32    0.88
  WS02006113WS02006111 CONDUIT    561.94     0  03:02      2.47    0.67    0.46
  WS02006115WS02006116 CONDUIT    540.16     0  02:43      0.97    0.69    0.78
  WS02006116WS02004401 CONDUIT    537.56     0  02:43      0.98    0.74    0.86
  WS02006228WS02006109 CONDUIT    556.04     0  02:41      1.11    2.43    1.00
  WS02006229WS02006228 CONDUIT    556.12     0  02:41      1.14    1.84    1.00
  WS02006230WS02006229 CONDUIT    555.97     0  02:41      1.44   12.37    1.00
  WS02006231WS02006230 CONDUIT    587.93     0  03:16      1.59    8.92    1.00
  WS02006232WS02006231 CONDUIT    577.74     0  03:16      1.50    1.21    1.00
  WS02006234WS02006232 CONDUIT    575.51     0  02:46      1.50    1.16    1.00
  WS02006235WS02006234 CONDUIT    572.08     0  02:46      1.49    6.04    1.00
  WS02006238WS02006235 CONDUIT    426.22     0  02:45      1.46    0.95    1.00
  WS02006239WS02006238 CONDUIT    425.05     0  03:15      1.10    1.36    1.00
  WS02006240WS02006239 CONDUIT    424.17     0  02:50      1.24    1.33    1.00
  WS02006242WS02006240 CONDUIT    423.05     0  03:15      1.13    1.68    1.00
  WS02006243WS02006242 CONDUIT    423.71     0  03:15      1.40    0.91    1.00
  WS02006245WS02006243 CONDUIT    423.03     0  03:15      1.45    1.25    1.00
  WS02006247WS02006245 CONDUIT    423.75     0  03:15      1.43    3.36    1.00
  WS02006248WS02006247 CONDUIT    423.68     0  03:15      1.44    0.92    1.00
  WS02006249WS02006248 CONDUIT    424.41     0  03:15      1.36    2.32    1.00
  WS02006251WS02006249 CONDUIT    459.02     0  00:00      1.99    1.32    1.00
  WS02006252WS02006251 CONDUIT    409.55     0  02:23     24.61    1.50    1.00
  WS02006256WS02006235 CONDUIT    288.91     0  00:00      4.23    3.06    1.00
  WSF200WS02003060     CONDUIT    532.97     0  03:28      2.06    0.12    0.28
  YS02001580YS02001583 CONDUIT     75.85     0  02:13      0.54    0.29    1.00
  YS02001583YS02001586 CONDUIT    126.98     0  02:12      0.54    0.19    1.00
  YS02001586YS02001590 CONDUIT    318.09     0  02:24      1.24    0.56    1.00
  YS02001590YS02001593 CONDUIT    317.94     0  02:24      1.12    2.00    1.00
  YS02001593YS02001596 CONDUIT    317.97     0  02:35      1.75    0.50    1.00
  YS02001596YS02001600 CONDUIT    318.06     0  02:35      1.26    0.62    1.00
  YS02001600YS02001601 CONDUIT    317.94     0  02:35      1.12    0.55    1.00
  YS02001601YS02001602 CONDUIT    493.25     0  02:12      1.74    1.78    1.00
  YS02001602YS02001605 CONDUIT    493.24     0  02:12      1.74   10.44    1.00
  YS02001605YS02001607 CONDUIT    493.66     0  02:12      1.75    2.71    1.00
  YS02001607YS02001610 CONDUIT    499.70     0  02:12      0.64    0.48    1.00
  YS02001610YS02001613 CONDUIT    500.03     0  02:12      0.64    0.58    1.00
  YS02001613YS02001616 CONDUIT    499.92     0  02:12      0.64    0.43    1.00
  YS02001616YS02001619 CONDUIT    493.64     0  02:12      0.66    0.86    1.00
  YS02001619YS02001622 CONDUIT    928.18     0  02:17      1.18    1.37    1.00
  YS02001622YS02001625 CONDUIT    928.77     0  02:17      1.18    0.50    1.00
  YS02001625YS02001629 CONDUIT    928.54     0  02:17      1.18    0.44    1.00
  YS02001629YS02163301 CONDUIT    931.71     0  02:17      1.19    1.15    1.00
  YS02001633YS02163601 CONDUIT   1352.79     0  02:17      1.72    1.42    1.00
  YS02001641YS02001644 CONDUIT   1352.52     0  02:17      1.72    4.37    1.00
  YS02001644YS02001647 CONDUIT   1735.34     0  02:17      2.22    1.02    1.00
  YS02001647YS02001649 CONDUIT   1737.74     0  02:17      2.31    0.92    1.00
  YS02001649YS02001757 CONDUIT   1967.07     0  02:18      2.52    1.19    1.00
  YS02001652YS02001649 CONDUIT    834.72     0  02:25      1.06    0.41    1.00
  YS02001655YS02001652 CONDUIT    834.14     0  02:25      1.24    0.41    1.00
  YS02001658YS02001655 CONDUIT    833.70     0  02:25      1.84    0.35    1.00
  YS02001661YS02001658 CONDUIT    833.23     0  02:25      2.26    0.33    1.00
  YS02001664YS02001661 CONDUIT    883.88     0  02:24      2.23    0.28    0.74
  YS02001745YS02001748 CONDUIT    525.81     0  02:25      2.10    0.20    0.88
  YS02001748YS02001751 CONDUIT    522.56     0  02:25      1.63    0.26    1.00
  YS02001751YS02001754 CONDUIT    521.08     0  02:25      1.38    0.25    1.00
  YS02001754YS02001757 CONDUIT    520.47     0  02:25      0.66    0.21    1.00
  YS02001757CaochengTiaoxuchi CONDUIT   3347.19     0  02:24      4.26    1.45    1.00
  YS02001759YS02001757 CONDUIT   1383.47     0  02:24      1.76    0.98    1.00
  YS02001762YS02001759 CONDUIT    752.45     0  02:22      0.96    0.87    1.00
  YS02001765YS02001762 CONDUIT    754.25     0  02:22      0.96    0.71    1.00
  YS02001767YS02001765 CONDUIT    755.16     0  02:22      0.96    0.95    1.00
  YS02001770YS02001767 CONDUIT    756.22     0  02:22      0.96    3.00    1.00
  YS02001774YS02001770 CONDUIT    366.23     0  02:25      0.47    0.23    1.00
  YS02001779YS02001774 CONDUIT    367.53     0  02:25      0.47    0.19    1.00
  YS02001783YS02001784 CONDUIT   1169.94     0  02:25      2.33    1.61    1.00
  YS02001784YS02001785 CONDUIT   1171.82     0  02:25      2.33    2.73    1.00
  YS02001786YS02001788 CONDUIT   1169.77     0  02:24      2.49    2.25    0.89
  YS02001788YS02001790 CONDUIT   1172.93     0  02:24      2.72    0.86    0.84
  YS02001790YS02001791 CONDUIT   1291.14     0  02:22      3.43    1.40    0.71
  YS02001791YS02001793 CONDUIT   1254.47     0  02:26      6.77    0.54    0.44
  YS02001793JiankangQianchi CONDUIT   1288.50     0  02:26      2.58    0.10    0.64
  YS02001882YS02001884 CONDUIT     44.51     0  02:16      0.12    0.05    1.00
  YS02001884YS02001887 CONDUIT     43.41     0  02:16      0.08    0.06    1.00
  YS02001887YS02001890 CONDUIT    775.26     0  02:25      0.99    1.33    1.00
  YS02001890YS02001895 CONDUIT    517.95     0  02:25      0.66    0.24    1.00
  YS02001895YS02001898 CONDUIT    517.45     0  02:27      0.66    0.90    1.00
  YS02001898YS02001901 CONDUIT    517.55     0  02:27      0.66    0.33    1.00
  YS02001901YS02001904 CONDUIT    517.53     0  02:27      0.66    0.80    1.00
  YS02001904YS02001907 CONDUIT    518.33     0  02:25      0.66    0.18    1.00
  YS02001907YS02006553 CONDUIT    799.96     0  02:37      0.89    0.94    1.00
  YS02001910YS02001907 CONDUIT   1329.46     0  02:25      1.69    0.75    1.00
  YS02001915YS02001910 CONDUIT   1329.83     0  02:25      1.69    0.66    1.00
  YS02001918YS02001915 CONDUIT    451.13     0  02:25      0.57    0.25    1.00
  YS02001920YS02001918 CONDUIT    450.87     0  02:25      0.67    0.44    1.00
  YS02001923YS02001920 CONDUIT    447.50     0  02:25      0.69    0.20    1.00
  YS02001926YS02001923 CONDUIT    448.50     0  02:25      0.95    0.64    1.00
  YS02001929YS02001926 CONDUIT    447.55     0  02:25      1.09    0.21    1.00
  YS02006553YS02006556 CONDUIT    800.17     0  02:37      1.02    0.68    1.00
  YS02006556YS02006558 CONDUIT    802.61     0  02:37      1.02    0.63    1.00
  YS02006558YS02006561 CONDUIT   1167.29     0  02:25      4.13    2.58    1.00
  YS02006561YS02001783 CONDUIT   1169.97     0  02:25      2.33    0.61    1.00
  YS02163301YS02001633 CONDUIT    932.40     0  02:17      1.19    0.88    1.00
  YS02163601YS02164001 CONDUIT   1353.03     0  02:17      1.72    1.20    1.00
  YS02164001YS02001641 CONDUIT   1352.83     0  02:17      1.72    1.85    1.00
  CC-R1                PUMP       683.00     0  00:00              1.00
  CC-R2                PUMP       683.00     0  00:00              1.00
  CC-S1                PUMP       200.00     0  00:00              1.00
  CC-S2                PUMP       200.00     0  00:00              1.00
  JK-R1                PUMP      1000.00     0  00:00              1.00
  JK-R2                PUMP      1000.00     0  00:00              1.00
  JK-S                 PUMP       300.00     0  00:00              1.00
  
  
  ***************************
  Flow Classification Summary
  ***************************
  
  -------------------------------------------------------------------------------------
                      Adjusted    ---------- Fraction of Time in Flow Class ---------- 
                       /Actual         Up    Down  Sub   Sup   Up    Down  Norm  Inlet 
  Conduit               Length    Dry  Dry   Dry   Crit  Crit  Crit  Crit  Ltd   Ctrl  
  -------------------------------------------------------------------------------------
  1                       1.00   0.00  0.00  0.00  0.00  1.00  0.00  0.00  0.35  0.00
  WS02003060WS02003069    1.00   0.00  0.00  0.00  0.98  0.02  0.00  0.00  0.70  0.00
  WS02003066WSF200        1.00   0.13  0.00  0.00  0.00  0.87  0.00  0.00  0.80  0.00
  WS02003067WS02003066    1.00   0.10  0.02  0.00  0.88  0.00  0.00  0.00  0.00  0.00
  WS02003069WS02003072    1.00   0.00  0.00  0.00  0.99  0.01  0.00  0.00  0.79  0.00
  WS02003072WS02003073    1.00   0.00  0.00  0.00  0.00  0.00  0.00  1.00  0.00  0.00
  WS02004401WS02004402    1.00   0.02  0.00  0.00  0.98  0.00  0.00  0.00  0.00  0.00
  WS02004402WS02004403    1.00   0.02  0.00  0.00  0.97  0.00  0.00  0.00  0.00  0.00
  WS02004403WS02004404    1.00   0.00  0.03  0.00  0.97  0.00  0.00  0.00  0.00  0.00
  WS02004404WS02004405    1.00   0.00  0.00  0.00  1.00  0.00  0.00  0.00  0.01  0.00
  WS02004405WS02004406    1.00   0.00  0.00  0.00  1.00  0.00  0.00  0.00  0.00  0.00
  WS02004406WS02004407    1.00   0.00  0.05  0.00  0.95  0.00  0.00  0.00  0.00  0.00
  WS02004407WS02004409    1.00   0.05  0.00  0.00  0.94  0.01  0.00  0.00  0.94  0.00
  WS02004409WS02004410    1.00   0.05  0.00  0.00  0.95  0.00  0.00  0.00  0.03  0.00
  WS02004410WS02004411    1.00   0.05  0.00  0.00  0.95  0.00  0.00  0.00  0.01  0.00
  WS02004411WS02004412    1.00   0.05  0.00  0.00  0.95  0.00  0.00  0.00  0.00  0.00
  WS02004412WS02004413    1.00   0.05  0.00  0.00  0.94  0.00  0.00  0.00  0.01  0.00
  WS02004413WS02003067    1.00   0.06  0.04  0.00  0.00  0.00  0.90  0.00  0.00  0.00
  WS02006109WS02006110    1.00   0.00  0.01  0.00  0.98  0.00  0.01  0.00  0.00  0.00
  WS02006110WS02006113    1.00   0.01  0.01  0.00  0.98  0.00  0.00  0.00  0.00  0.00
  WS02006111WS02006112    1.00   0.02  0.00  0.00  0.98  0.00  0.00  0.00  0.98  0.00
  WS02006112WS02006115    1.00   0.02  0.00  0.00  0.97  0.00  0.00  0.00  0.00  0.00
  WS02006113WS02006111    1.00   0.02  0.00  0.00  0.00  0.98  0.00  0.00  0.12  0.00
  WS02006115WS02006116    1.00   0.02  0.00  0.00  0.97  0.00  0.00  0.01  0.00  0.00
  WS02006116WS02004401    1.00   0.02  0.00  0.00  0.98  0.00  0.00  0.00  0.00  0.00
  WS02006228WS02006109    1.00   0.00  0.00  0.00  1.00  0.00  0.00  0.00  0.00  0.00
  WS02006229WS02006228    1.00   0.00  0.00  0.00  0.99  0.00  0.00  0.01  0.00  0.00
  WS02006230WS02006229    1.00   0.00  0.00  0.00  0.99  0.00  0.00  0.01  0.02  0.00
  WS02006231WS02006230    1.00   0.00  0.00  0.00  0.22  0.00  0.78  0.00  0.00  0.00
  WS02006232WS02006231    1.00   0.00  0.00  0.00  0.99  0.00  0.01  0.00  0.00  0.00
  WS02006234WS02006232    1.00   0.00  0.00  0.00  1.00  0.00  0.00  0.00  0.06  0.00
  WS02006235WS02006234    1.00   0.00  0.00  0.00  0.91  0.00  0.09  0.00  0.00  0.00
  WS02006238WS02006235    1.00   0.00  0.00  0.00  1.00  0.00  0.00  0.00  0.00  0.00
  WS02006239WS02006238    1.00   0.00  0.00  0.00  1.00  0.00  0.00  0.00  0.14  0.00
  WS02006240WS02006239    1.00   0.00  0.00  0.00  0.71  0.00  0.00  0.29  0.05  0.00
  WS02006242WS02006240    1.00   0.00  0.00  0.00  0.99  0.00  0.01  0.00  0.00  0.00
  WS02006243WS02006242    1.00   0.00  0.00  0.00  0.99  0.00  0.00  0.01  0.55  0.00
  WS02006245WS02006243    1.00   0.00  0.00  0.00  0.76  0.00  0.00  0.24  0.01  0.00
  WS02006247WS02006245    1.00   0.00  0.00  0.00  0.98  0.00  0.00  0.02  0.00  0.00
  WS02006248WS02006247    1.00   0.00  0.00  0.00  0.99  0.00  0.00  0.01  0.44  0.00
  WS02006249WS02006248    1.00   0.00  0.00  0.00  0.47  0.00  0.53  0.00  0.00  0.00
  WS02006251WS02006249    1.00   0.00  0.00  0.00  0.99  0.01  0.00  0.00  0.54  0.00
  WS02006252WS02006251    1.00   0.00  0.52  0.00  0.08  0.00  0.40  0.00  0.03  0.00
  WS02006256WS02006235    1.00   0.00  0.00  0.00  0.98  0.02  0.00  0.00  0.01  0.00
  WSF200WS02003060        1.00   0.00  0.13  0.00  0.34  0.54  0.00  0.00  0.51  0.00
  YS02001580YS02001583    1.00   0.27  0.54  0.00  0.18  0.00  0.00  0.00  0.64  0.00
  YS02001583YS02001586    1.00   0.41  0.35  0.00  0.24  0.00  0.00  0.00  0.64  0.00
  YS02001586YS02001590    1.00   0.13  0.00  0.00  0.44  0.04  0.00  0.39  0.39  0.00
  YS02001590YS02001593    1.00   0.13  0.01  0.00  0.11  0.00  0.76  0.00  0.00  0.00
  YS02001593YS02001596    1.00   0.13  0.00  0.00  0.13  0.01  0.00  0.73  0.02  0.00
  YS02001596YS02001600    1.00   0.14  0.00  0.00  0.20  0.02  0.00  0.65  0.05  0.00
  YS02001600YS02001601    1.00   0.13  0.01  0.00  0.86  0.00  0.00  0.00  0.60  0.00
  YS02001601YS02001602    1.00   0.13  0.01  0.00  0.87  0.00  0.00  0.00  0.00  0.00
  YS02001602YS02001605    1.00   0.13  0.00  0.00  0.86  0.00  0.00  0.00  0.00  0.00
  YS02001605YS02001607    1.00   0.14  0.00  0.00  0.86  0.00  0.00  0.00  0.00  0.00
  YS02001607YS02001610    1.00   0.13  0.01  0.00  0.86  0.00  0.00  0.00  0.01  0.00
  YS02001610YS02001613    1.00   0.13  0.00  0.00  0.87  0.00  0.00  0.00  0.00  0.00
  YS02001613YS02001616    1.00   0.13  0.00  0.00  0.87  0.00  0.00  0.00  0.00  0.00
  YS02001616YS02001619    1.00   0.13  0.00  0.00  0.87  0.00  0.00  0.00  0.00  0.00
  YS02001619YS02001622    1.00   0.13  0.00  0.00  0.87  0.00  0.00  0.00  0.27  0.00
  YS02001622YS02001625    1.00   0.13  0.00  0.00  0.87  0.00  0.00  0.00  0.04  0.00
  YS02001625YS02001629    1.00   0.13  0.05  0.00  0.15  0.00  0.67  0.00  0.00  0.00
  YS02001629YS02163301    1.00   0.15  0.01  0.00  0.84  0.00  0.00  0.00  0.00  0.00
  YS02001633YS02163601    1.00   0.00  0.01  0.00  0.99  0.00  0.00  0.00  0.15  0.00
  YS02001641YS02001644    1.00   0.00  0.01  0.00  0.99  0.00  0.00  0.00  0.00  0.00
  YS02001644YS02001647    1.00   0.00  0.17  0.00  0.83  0.00  0.00  0.00  0.00  0.00
  YS02001647YS02001649    1.00   0.00  0.17  0.00  0.52  0.30  0.00  0.00  0.55  0.00
  YS02001649YS02001757    1.00   0.00  0.00  0.00  0.77  0.23  0.00  0.00  0.37  0.00
  YS02001652YS02001649    1.00   0.00  0.00  0.00  0.96  0.04  0.00  0.00  0.74  0.00
  YS02001655YS02001652    1.00   0.00  0.00  0.00  0.18  0.01  0.00  0.81  0.07  0.00
  YS02001658YS02001655    1.00   0.00  0.14  0.00  0.64  0.22  0.00  0.00  0.71  0.00
  YS02001661YS02001658    1.00   0.14  0.00  0.00  0.47  0.39  0.00  0.00  0.71  0.00
  YS02001664YS02001661    1.00   0.13  0.00  0.00  0.76  0.12  0.00  0.00  0.86  0.00
  YS02001745YS02001748    1.00   0.00  0.00  0.00  0.07  0.01  0.00  0.92  0.04  0.00
  YS02001748YS02001751    1.00   0.00  0.00  0.00  0.80  0.20  0.00  0.00  0.75  0.00
  YS02001751YS02001754    1.00   0.00  0.00  0.00  0.15  0.01  0.00  0.84  0.05  0.00
  YS02001754YS02001757    1.00   0.00  0.00  0.00  1.00  0.00  0.00  0.00  0.83  0.00
  YS02001757CaochengTiaoxuchi    1.00   0.00  0.00  0.00  0.95  0.05  0.00  0.00  0.68  0.00
  YS02001759YS02001757    1.00   0.00  0.00  0.00  1.00  0.00  0.00  0.00  0.55  0.00
  YS02001762YS02001759    1.00   0.00  0.00  0.00  1.00  0.00  0.00  0.00  0.06  0.00
  YS02001765YS02001762    1.00   0.00  0.00  0.00  1.00  0.00  0.00  0.00  0.70  0.00
  YS02001767YS02001765    1.00   0.00  0.00  0.00  1.00  0.00  0.00  0.00  0.00  0.00
  YS02001770YS02001767    1.00   0.00  0.00  0.00  1.00  0.00  0.00  0.00  0.00  0.00
  YS02001774YS02001770    1.00   0.00  0.13  0.00  0.70  0.00  0.16  0.00  0.03  0.00
  YS02001779YS02001774    1.00   0.00  0.00  0.00  1.00  0.00  0.00  0.00  0.76  0.00
  YS02001783YS02001784    1.00   0.00  0.18  0.00  0.82  0.00  0.00  0.00  0.55  0.00
  YS02001784YS02001785    1.00   0.00  0.00  0.00  1.00  0.00  0.00  0.00  0.17  0.00
  YS02001786YS02001788    1.00   0.00  0.00  0.00  0.79  0.21  0.00  0.00  0.00  0.00
  YS02001788YS02001790    1.00   0.00  0.00  0.00  0.21  0.79  0.00  0.00  0.80  0.00
  YS02001790YS02001791    1.00   0.00  0.00  0.00  0.01  0.99  0.00  0.00  0.16  0.00
  YS02001791YS02001793    1.00   0.00  0.00  0.00  0.00  1.00  0.00  0.00  0.01  0.00
  YS02001793JiankangQianchi    1.00   0.00  0.00  0.00  0.98  0.02  0.00  0.00  0.96  0.00
  YS02001882YS02001884    1.00   0.15  0.01  0.00  0.84  0.00  0.00  0.00  0.00  0.00
  YS02001884YS02001887    1.00   0.06  0.05  0.00  0.89  0.00  0.00  0.00  0.00  0.00
  YS02001887YS02001890    1.00   0.00  0.00  0.00  0.97  0.00  0.03  0.00  0.00  0.00
  YS02001890YS02001895    1.00   0.00  0.16  0.00  0.83  0.00  0.00  0.00  0.00  0.00
  YS02001895YS02001898    1.00   0.17  0.00  0.00  0.81  0.00  0.02  0.00  0.00  0.00
  YS02001898YS02001901    1.00   0.17  0.00  0.00  0.83  0.00  0.00  0.00  0.01  0.00
  YS02001901YS02001904    1.00   0.17  0.00  0.00  0.83  0.00  0.00  0.00  0.00  0.00
  YS02001904YS02001907    1.00   0.00  0.16  0.00  0.83  0.00  0.00  0.00  0.00  0.00
  YS02001907YS02006553    1.00   0.00  0.02  0.00  0.98  0.00  0.00  0.00  0.00  0.00
  YS02001910YS02001907    1.00   0.00  0.00  0.00  0.97  0.00  0.00  0.03  0.12  0.00
  YS02001915YS02001910    1.00   0.00  0.00  0.00  0.97  0.03  0.00  0.00  0.16  0.00
  YS02001918YS02001915    1.00   0.00  0.01  0.00  0.98  0.02  0.00  0.00  0.75  0.00
  YS02001920YS02001918    1.00   0.00  0.01  0.00  0.99  0.00  0.00  0.00  0.00  0.00
  YS02001923YS02001920    1.00   0.00  0.00  0.00  1.00  0.00  0.00  0.00  0.93  0.00
  YS02001926YS02001923    1.00   0.00  0.07  0.00  0.05  0.00  0.87  0.00  0.00  0.00
  YS02001929YS02001926    1.00   0.00  0.13  0.00  0.87  0.00  0.00  0.00  0.83  0.00
  YS02006553YS02006556    1.00   0.01  0.00  0.00  0.99  0.00  0.00  0.00  0.03  0.00
  YS02006556YS02006558    1.00   0.00  0.00  0.00  1.00  0.00  0.00  0.00  0.00  0.00
  YS02006558YS02006561    1.00   0.18  0.00  0.00  0.05  0.77  0.00  0.00  0.19  0.00
  YS02006561YS02001783    1.00   0.18  0.00  0.00  0.08  0.73  0.00  0.00  0.69  0.00
  YS02163301YS02001633    1.00   0.00  0.15  0.00  0.85  0.00  0.00  0.00  0.00  0.00
  YS02163601YS02164001    1.00   0.00  0.08  0.00  0.92  0.00  0.00  0.00  0.00  0.00
  YS02164001YS02001641    1.00   0.01  0.07  0.00  0.92  0.00  0.00  0.00  0.06  0.00
  
  
  *************************
  Conduit Surcharge Summary
  *************************
  
  ----------------------------------------------------------------------------
                                                           Hours        Hours 
                         --------- Hours Full --------   Above Full   Capacity
  Conduit                Both Ends  Upstream  Dnstream   Normal Flow   Limited
  ----------------------------------------------------------------------------
  WS02003072WS02003073        0.01      0.01      0.01      0.85         0.01
  WS02004403WS02004404        0.01      0.01      0.01      0.01         0.01
  WS02004404WS02004405        0.01      0.01      0.01      3.26         0.01
  WS02004405WS02004406        0.01      0.01      0.01      0.42         0.01
  WS02006109WS02006110        0.46      0.46      1.49      0.55         0.01
  WS02006110WS02006113        0.01      0.01      1.46      0.01         0.01
  WS02006111WS02006112        0.01      0.01      2.22      0.01         0.01
  WS02006112WS02006115        0.01      0.01      0.62      0.01         0.01
  WS02006228WS02006109        1.41      1.49      1.41      2.56         1.41
  WS02006229WS02006228        1.40      1.43      1.40      1.91         1.39
  WS02006230WS02006229        1.61      1.83      1.61      3.95         1.61
  WS02006231WS02006230        0.48      0.48      0.59      3.58         0.01
  WS02006232WS02006231        0.56      0.56      1.49      0.61         0.01
  WS02006234WS02006232        1.35      1.35      1.49      0.59         0.59
  WS02006235WS02006234        0.75      0.76      1.39      3.42         0.01
  WS02006238WS02006235        1.42      1.42      1.50      0.01         0.01
  WS02006239WS02006238        1.45      1.48      1.46      1.64         1.34
  WS02006240WS02006239        1.42      1.45      1.42      1.63         1.25
  WS02006242WS02006240        1.43      1.43      1.55      1.79         0.01
  WS02006243WS02006242        1.45      1.45      1.50      0.01         0.03
  WS02006245WS02006243        1.43      1.44      1.44      1.12         0.96
  WS02006247WS02006245        1.43      1.46      1.43      3.06         1.42
  WS02006248WS02006247        1.43      1.43      1.45      0.01         0.04
  WS02006249WS02006248        1.42      1.42      1.43      2.99         0.01
  WS02006251WS02006249        1.43      1.43      1.43      1.71         1.37
  WS02006252WS02006251        1.76      1.76      1.78      1.76         0.01
  WS02006256WS02006235        3.40      3.45      6.87      1.23         0.01
  YS02001580YS02001583        0.55      0.55      0.59      0.01         0.01
  YS02001583YS02001586        0.56      0.56      0.66      0.01         0.01
  YS02001586YS02001590        0.67      0.67      0.74      0.01         0.01
  YS02001590YS02001593        0.74      0.74      0.76      0.77         0.01
  YS02001593YS02001596        0.76      0.76      0.86      0.01         0.01
  YS02001596YS02001600        0.92      0.92      1.02      0.01         0.01
  YS02001600YS02001601        1.08      1.08      1.37      0.01         0.01
  YS02001601YS02001602        1.25      1.25      1.42      1.04         0.01
  YS02001602YS02001605        1.19      1.19      1.25      2.33         0.01
  YS02001605YS02001607        1.15      1.19      1.15      1.33         1.15
  YS02001607YS02001610        0.71      0.71      0.73      0.01         0.01
  YS02001610YS02001613        0.70      0.70      0.73      0.01         0.01
  YS02001613YS02001616        0.66      0.66      0.70      0.01         0.01
  YS02001616YS02001619        0.64      0.64      0.66      0.01         0.01
  YS02001619YS02001622        0.64      0.64      0.64      0.78         0.61
  YS02001622YS02001625        0.64      0.64      0.83      0.01         0.01
  YS02001625YS02001629        0.59      0.59      0.83      0.01         0.01
  YS02001629YS02163301        0.81      0.81      0.82      0.26         0.24
  YS02001633YS02163601        0.84      0.84      0.88      0.39         0.39
  YS02001641YS02001644        0.72      0.76      0.72      1.47         0.71
  YS02001644YS02001647        0.50      0.50      0.72      0.03         0.01
  YS02001647YS02001649        0.50      0.50      0.59      0.01         0.01
  YS02001649YS02001757        0.58      0.59      0.64      0.13         0.13
  YS02001652YS02001649        0.44      0.44      0.59      0.01         0.01
  YS02001655YS02001652        0.29      0.29      0.42      0.01         0.01
  YS02001658YS02001655        0.17      0.17      0.29      0.01         0.01
  YS02001661YS02001658        0.01      0.01      0.17      0.01         0.01
  YS02001664YS02001661        0.01      0.01      0.04      0.01         0.01
  YS02001745YS02001748        0.01      0.01      0.10      0.01         0.01
  YS02001748YS02001751        0.14      0.14      0.21      0.01         0.01
  YS02001751YS02001754        0.21      0.21      0.33      0.01         0.01
  YS02001754YS02001757        0.36      0.36      0.64      0.01         0.01
  YS02001757CaochengTiaoxuchi        0.58      0.64      1.33      0.37         0.27
  YS02001759YS02001757        0.55      0.55      0.64      0.01         0.01
  YS02001762YS02001759        0.52      0.52      0.55      0.01         0.02
  YS02001765YS02001762        0.47      0.47      0.52      0.01         0.01
  YS02001767YS02001765        0.45      0.45      0.47      0.01         0.03
  YS02001770YS02001767        0.45      0.45      0.45      0.50         0.35
  YS02001774YS02001770        0.43      0.43      0.50      0.01         0.01
  YS02001779YS02001774        0.33      0.33      0.50      0.01         0.01
  YS02001783YS02001784        0.47      0.49      0.47      0.66         0.47
  YS02001784YS02001785        0.36      0.47      0.36      0.90         0.36
  YS02001786YS02001788        0.01      0.36      0.01      0.78         0.01
  YS02001790YS02001791        0.01      0.01      0.01      0.45         0.01
  YS02001793JiankangQianchi        0.01      0.01      7.00      0.01         0.01
  YS02001882YS02001884        0.44      0.44      0.44      0.01         0.01
  YS02001884YS02001887        0.47      0.47      0.48      0.01         0.01
  YS02001887YS02001890        0.49      0.49      0.51      0.09         0.01
  YS02001890YS02001895        0.42      0.42      0.52      0.01         0.01
  YS02001895YS02001898        0.41      0.41      0.42      0.01         0.01
  YS02001898YS02001901        0.43      0.43      0.47      0.01         0.01
  YS02001901YS02001904        0.46      0.46      0.47      0.01         0.01
  YS02001904YS02001907        0.46      0.46      0.76      0.01         0.01
  YS02001907YS02006553        0.91      0.91      0.99      0.01         0.01
  YS02001910YS02001907        0.52      0.52      0.74      0.01         0.01
  YS02001915YS02001910        0.43      0.43      0.52      0.01         0.01
  YS02001918YS02001915        0.35      0.35      0.43      0.01         0.01
  YS02001920YS02001918        0.35      0.35      0.36      0.01         0.01
  YS02001923YS02001920        0.31      0.31      0.36      0.01         0.01
  YS02001926YS02001923        0.05      0.05      0.11      0.01         0.01
  YS02001929YS02001926        0.01      0.01      0.11      0.01         0.01
  YS02006553YS02006556        0.62      0.62      0.76      0.01         0.01
  YS02006556YS02006558        0.68      0.68      0.77      0.01         0.01
  YS02006558YS02006561        0.38      0.61      0.38      0.86         0.38
  YS02006561YS02001783        0.31      0.31      0.49      0.01         0.01
  YS02163301YS02001633        0.82      0.82      0.86      0.01         0.01
  YS02163601YS02164001        0.77      0.77      0.88      0.11         0.01
  YS02164001YS02001641        0.76      0.77      0.76      0.72         0.58
  
  
  ***************
  Pumping Summary
  ***************
  
  ---------------------------------------------------------------------------------------------------------
                                                  Min       Avg       Max     Total     Power    % Time Off
                        Percent   Number of      Flow      Flow      Flow    Volume     Usage    Pump Curve
  Pump                 Utilized   Start-Ups       LPS       LPS       LPS  10^6 ltr     Kw-hr    Low   High
  ---------------------------------------------------------------------------------------------------------
  CC-R1                   19.99          20      0.00    683.00    683.00     3.932     71.34    0.0   29.4
  CC-R2                   18.74          21      0.00    683.00    683.00     3.686     65.55    0.0   48.1
  CC-S1                   37.72          15      0.00    200.00    200.00     2.173     13.03    0.0    0.0
  CC-S2                   23.75          15      0.00    200.00    200.00     1.368      8.17    0.0    0.0
  JK-R1                    6.83          17      0.00   1000.00   1000.00     1.967     20.31    0.0    0.0
  JK-R2                    2.76           8      0.00   1000.00   1000.00     0.796      7.08    0.0    0.0
  JK-S                    14.77          35      0.00    300.00    300.00     1.276     20.43    0.0    0.0
  

  Analysis begun on:  Wed Dec 25 13:05:07 2024
  Analysis ended on:  Wed Dec 25 13:05:08 2024
  Total elapsed time: 00:00:01