
  EPA STORM WATER MANAGEMENT MODEL - VERSION 5.2 (Build 5.2.4)
  PYSWMM TOOLKIT API - VERSION v1.0 (2023-11-27)
  ------------------------------------------------------------

  WARNING 04: minimum elevation drop used for Conduit WS02004404WS02004405
  WARNING 03: negative offset ignored for Link YS02001904YS02001907
  
  ****************
  Analysis Options
  ****************
  Flow Units ............... LPS
  Process Models:
    Rainfall/Runoff ........ YES
    RDII ................... NO
    Snowmelt ............... NO
    Groundwater ............ NO
    Flow Routing ........... YES
    Ponding Allowed ........ NO
    Water Quality .......... NO
  Infiltration Method ...... HORTON
  Flow Routing Method ...... DYNWAVE
  Surcharge Method ......... EXTRAN
  Starting Date ............ 08/28/2015 08:00:00
  Ending Date .............. 08/28/2015 16:00:00
  Antecedent Dry Days ...... 8.0
  Report Time Step ......... 00:01:00
  Wet Time Step ............ 00:01:00
  Dry Time Step ............ 00:01:00
  Routing Time Step ........ 30.00 sec
  Variable Time Step ....... YES
  Maximum Trials ........... 8
  Number of Threads ........ 4
  Head Tolerance ........... 0.001500 m
  
  
  **************************        Volume         Depth
  Runoff Quantity Continuity     hectare-m            mm
  **************************     ---------       -------
  Total Precipitation ......         1.548        46.668
  Evaporation Loss .........         0.000         0.000
  Infiltration Loss ........         0.095         2.858
  Surface Runoff ...........         1.421        42.828
  Final Storage ............         0.033         0.993
  Continuity Error (%) .....        -0.024
  
  
  **************************        Volume        Volume
  Flow Routing Continuity        hectare-m      10^6 ltr
  **************************     ---------     ---------
  Dry Weather Inflow .......         0.025         0.251
  Wet Weather Inflow .......         1.420        14.202
  Groundwater Inflow .......         0.000         0.000
  RDII Inflow ..............         0.000         0.000
  External Inflow ..........         0.083         0.834
  External Outflow .........         1.329        13.292
  Flooding Loss ............         0.268         2.680
  Evaporation Loss .........         0.000         0.000
  Exfiltration Loss ........         0.000         0.000
  Initial Stored Volume ....         0.243         2.431
  Final Stored Volume ......         0.182         1.817
  Continuity Error (%) .....        -0.408
  
  
  *************************
  Highest Continuity Errors
  *************************
  Node YS02001583 (-5.93%)
  Node YS02001884 (5.27%)
  Node WS02006256 (-4.14%)
  Node YS02001774 (1.47%)
  
  
  ***************************
  Time-Step Critical Elements
  ***************************
  Link WS02006252WS02006251 (36.16%)
  Link WS02006238WS02006235 (23.59%)
  Link WS02004404WS02004405 (12.34%)
  Link WS02006235WS02006234 (9.23%)
  Link YS02001791YS02001793 (5.33%)
  
  
  ********************************
  Highest Flow Instability Indexes
  ********************************
  Link WS02006113WS02006111 (43)
  Link WS02006111WS02006112 (21)
  Link WS02006256WS02006235 (21)
  Link WS02006252WS02006251 (12)
  Link WS02006238WS02006235 (9)
  
  
  *********************************
  Most Frequent Nonconverging Nodes
  *********************************
  Node CC-1 (7.86%)
  Node CC-2 (7.86%)
  Node JK-1 (7.86%)
  Node JK-2 (7.86%)
  Node WSC (7.86%)
  
  
  *************************
  Routing Time Step Summary
  *************************
  Minimum Time Step           :     0.00 sec
  Average Time Step           :     2.34 sec
  Maximum Time Step           :     7.04 sec
  % of Time in Steady State   :     0.00
  Average Iterations per Step :     2.84
  % of Steps Not Converging   :     7.86
  Time Step Frequencies       :
     30.000 - 13.228 sec      :     0.00 %
     13.228 -  5.833 sec      :    10.80 %
      5.833 -  2.572 sec      :    27.09 %
      2.572 -  1.134 sec      :    20.67 %
      1.134 -  0.500 sec      :    41.44 %
  
  
  ***************************
  Subcatchment Runoff Summary
  ***************************
  
  ------------------------------------------------------------------------------------------------------------------------------
                            Total      Total      Total      Total     Imperv       Perv      Total       Total     Peak  Runoff
                           Precip      Runon       Evap      Infil     Runoff     Runoff     Runoff      Runoff   Runoff   Coeff
  Subcatchment                 mm         mm         mm         mm         mm         mm         mm    10^6 ltr      LPS
  ------------------------------------------------------------------------------------------------------------------------------
  sub60                     46.67       0.00       0.00       1.71      39.86       3.89      43.75        0.57   434.94   0.938
  sub61                     46.67       0.00       0.00       2.49      37.60       5.45      43.05        0.79   602.65   0.922
  sub62                     46.67       0.00       0.00       1.14      41.65       2.59      44.24        1.21   841.75   0.948
  sub63                     46.67       0.00       0.00       4.62      32.16       8.92      41.08        0.93   664.26   0.880
  sub64                     46.67       0.00       0.00       2.33      38.46       4.67      43.13        1.04   678.53   0.924
  sub65                     46.67       0.00       0.00       2.02      39.35       4.05      43.40        1.19   754.99   0.930
  sub66                     46.67       0.00       0.00       5.72      32.06       7.82      39.88        1.86   959.56   0.855
  sub67                     46.67       0.00       0.00       1.10      41.69       2.64      44.32        0.82   664.80   0.950
  sub68                     46.67       0.00       0.00       2.06      38.95       4.47      43.42        1.19   862.34   0.930
  sub69                     46.67       0.00       0.00       1.82      39.56       5.18      44.74        1.66  1005.88   0.959
  sub70                     46.67       0.00       0.00       6.09      30.64       9.78      40.41        1.17   537.54   0.866
  sub71                     46.67       0.00       0.00       1.17      41.61       2.56      44.17        1.16   734.68   0.946
  sub72                     46.67       0.00       0.00       1.05      42.00       2.22      44.22        0.61   350.03   0.948
  
  
  ******************
  Node Depth Summary
  ******************
  
  ---------------------------------------------------------------------------------
                                 Average  Maximum  Maximum  Time of Max    Reported
                                   Depth    Depth      HGL   Occurrence   Max Depth
  Node                 Type       Meters   Meters   Meters  days hr:min      Meters
  ---------------------------------------------------------------------------------
  WS02003060           JUNCTION     0.22     0.38     5.31     0  02:48        0.38
  WS02003066           JUNCTION     0.18     0.30     5.85     0  02:48        0.30
  WS02003067           JUNCTION     0.48     0.70     6.02     0  02:48        0.70
  WS02003069           JUNCTION     0.24     0.43     5.01     0  02:49        0.43
  WS02003072           JUNCTION     0.30     0.50     4.87     0  02:49        0.50
  WS02003073           JUNCTION     0.17     0.30     4.36     0  02:50        0.30
  WS02004401           JUNCTION     0.55     0.85     6.85     0  02:45        0.85
  WS02004402           JUNCTION     0.58     0.87     6.83     0  02:45        0.87
  WS02004403           JUNCTION     0.61     0.89     6.82     0  02:45        0.89
  WS02004404           JUNCTION     0.68     0.96     6.81     0  02:46        0.96
  WS02004405           JUNCTION     0.68     0.95     6.80     0  02:46        0.95
  WS02004406           JUNCTION     0.69     0.95     6.78     0  02:46        0.95
  WS02004407           JUNCTION     0.16     0.29     6.61     0  02:46        0.29
  WS02004409           JUNCTION     0.35     0.66     6.43     0  02:46        0.66
  WS02004410           JUNCTION     0.38     0.68     6.40     0  02:47        0.68
  WS02004411           JUNCTION     0.40     0.69     6.37     0  02:47        0.69
  WS02004412           JUNCTION     0.43     0.69     6.33     0  02:47        0.69
  WS02004413           JUNCTION     0.59     0.85     6.32     0  02:48        0.85
  WS02006109           JUNCTION     0.60     1.18     7.80     0  02:38        0.98
  WS02006110           JUNCTION     0.61     1.21     7.79     0  02:38        1.02
  WS02006111           JUNCTION     0.16     0.29     6.99     0  02:40        0.29
  WS02006112           JUNCTION     0.70     1.09     6.97     0  02:38        1.05
  WS02006113           JUNCTION     0.24     0.46     7.35     0  02:39        0.45
  WS02006115           JUNCTION     0.43     0.75     6.89     0  02:44        0.75
  WS02006116           JUNCTION     0.52     0.83     6.87     0  02:45        0.83
  WS02006228           JUNCTION     0.58     1.35     8.00     0  02:37        1.02
  WS02006229           JUNCTION     0.55     1.40     8.09     0  02:37        1.03
  WS02006230           JUNCTION     0.54     1.62     8.37     0  02:37        1.15
  WS02006231           JUNCTION     0.36     1.52     8.64     0  02:37        0.91
  WS02006232           JUNCTION     0.49     1.41     8.45     0  02:37        1.11
  WS02006234           JUNCTION     0.40     1.39     8.55     0  02:37        1.14
  WS02006235           JUNCTION     0.43     1.45     8.62     0  02:37        1.23
  WS02006238           JUNCTION     0.46     1.48     8.63     0  02:37        1.26
  WS02006239           JUNCTION     0.43     1.45     8.66     0  02:30        1.24
  WS02006240           JUNCTION     0.39     1.47     8.76     0  02:30        1.20
  WS02006242           JUNCTION     0.46     1.55     8.82     0  02:30        1.28
  WS02006243           JUNCTION     0.37     1.43     8.85     0  02:30        1.18
  WS02006245           JUNCTION     0.38     1.36     8.84     0  02:30        1.18
  WS02006247           JUNCTION     0.40     1.30     8.80     0  02:30        1.19
  WS02006248           JUNCTION     0.36     1.10     8.69     0  02:30        1.10
  WS02006249           JUNCTION     0.40     1.09     8.69     0  02:30        1.09
  WS02006251           JUNCTION     0.39     1.55     9.22     0  02:37        1.14
  WS02006252           JUNCTION     0.30     1.50     9.74     0  00:00        0.68
  WS02006256           JUNCTION     0.78     2.35     9.28     0  00:00        2.35
  WSF200               JUNCTION     0.15     0.29     5.52     0  02:48        0.29
  YS02001580           JUNCTION     0.07     1.05     9.59     0  02:08        0.77
  YS02001583           JUNCTION     0.11     1.05     9.54     0  02:08        0.82
  YS02001586           JUNCTION     0.17     1.13     9.30     0  02:08        1.13
  YS02001590           JUNCTION     0.26     1.40     9.26     0  02:08        1.37
  YS02001593           JUNCTION     0.19     1.46     9.32     0  02:06        1.36
  YS02001596           JUNCTION     0.26     1.68     9.10     0  02:08        1.67
  YS02001600           JUNCTION     0.31     1.87     9.00     0  02:06        1.86
  YS02001601           JUNCTION     0.51     2.06     8.90     0  02:06        2.06
  YS02001602           JUNCTION     0.42     1.87     8.77     0  02:07        1.87
  YS02001605           JUNCTION     0.39     1.78     8.68     0  02:08        1.77
  YS02001607           JUNCTION     0.39     1.65     8.49     0  02:12        1.64
  YS02001610           JUNCTION     0.44     1.68     8.48     0  02:08        1.68
  YS02001613           JUNCTION     0.39     1.67     8.51     0  02:08        1.67
  YS02001616           JUNCTION     0.32     1.61     8.52     0  02:08        1.61
  YS02001619           JUNCTION     0.30     1.61     8.54     0  02:10        1.61
  YS02001622           JUNCTION     0.29     1.59     8.49     0  02:10        1.59
  YS02001625           JUNCTION     0.55     1.78     8.38     0  02:07        1.78
  YS02001629           JUNCTION     0.40     1.85     8.40     0  02:07        1.85
  YS02001633           JUNCTION     0.48     2.04     8.50     0  02:10        2.04
  YS02001641           JUNCTION     0.46     1.96     8.40     0  02:12        1.94
  YS02001644           JUNCTION     0.46     1.92     8.35     0  02:12        1.92
  YS02001647           JUNCTION     0.24     1.79     8.40     0  02:12        1.69
  YS02001649           JUNCTION     0.27     2.00     8.39     0  02:12        1.86
  YS02001652           JUNCTION     0.17     1.89     8.49     0  02:12        1.69
  YS02001655           JUNCTION     0.12     1.93     8.78     0  02:12        1.49
  YS02001658           JUNCTION     0.09     1.94     9.08     0  02:12        1.26
  YS02001661           JUNCTION     0.13     1.34     8.74     0  02:13        1.07
  YS02001664           JUNCTION     0.05     0.61     8.53     0  02:13        0.43
  YS02001745           JUNCTION     0.05     0.86     8.37     0  02:13        0.83
  YS02001748           JUNCTION     0.08     1.89     8.97     0  02:12        1.22
  YS02001751           JUNCTION     0.10     2.06     8.94     0  02:12        1.35
  YS02001754           JUNCTION     0.14     1.90     8.51     0  02:12        1.57
  YS02001757           JUNCTION     0.30     2.06     8.32     0  02:12        1.86
  YS02001759           JUNCTION     0.24     2.01     8.38     0  02:12        1.87
  YS02001762           JUNCTION     0.22     2.02     8.42     0  02:12        1.87
  YS02001765           JUNCTION     0.20     2.00     8.45     0  02:12        1.86
  YS02001767           JUNCTION     0.20     1.96     8.45     0  02:12        1.88
  YS02001770           JUNCTION     0.22     1.95     8.44     0  02:12        1.95
  YS02001774           JUNCTION     0.28     2.00     8.42     0  02:12        1.99
  YS02001779           JUNCTION     0.12     1.68     8.37     0  02:11        1.68
  YS02001783           JUNCTION     0.22     1.32     7.46     0  02:10        1.24
  YS02001784           JUNCTION     0.23     1.19     7.26     0  02:10        1.12
  YS02001786           JUNCTION     0.20     0.93     6.96     0  02:10        0.88
  YS02001788           JUNCTION     0.14     0.62     6.60     0  02:10        0.62
  YS02001790           JUNCTION     0.17     0.72     6.37     0  02:14        0.71
  YS02001791           JUNCTION     0.11     0.44     5.91     0  02:14        0.43
  YS02001793           JUNCTION     0.05     0.26     5.09     0  02:20        0.23
  YS02001882           JUNCTION     0.28     1.76     8.47     0  02:10        1.63
  YS02001884           JUNCTION     0.37     1.83     8.45     0  02:10        1.73
  YS02001887           JUNCTION     0.44     1.86     8.40     0  02:10        1.82
  YS02001890           JUNCTION     0.47     1.81     8.32     0  02:10        1.81
  YS02001895           JUNCTION     0.25     1.58     8.33     0  02:10        1.56
  YS02001898           JUNCTION     0.26     1.60     8.33     0  02:10        1.56
  YS02001901           JUNCTION     0.37     1.71     8.32     0  02:10        1.67
  YS02001904           JUNCTION     0.35     1.66     8.29     0  02:10        1.63
  YS02001907           JUNCTION     0.67     1.96     8.25     0  02:10        1.96
  YS02001910           JUNCTION     0.47     1.97     8.48     0  02:11        1.84
  YS02001915           JUNCTION     0.28     1.92     8.64     0  02:11        1.71
  YS02001918           JUNCTION     0.14     1.81     8.88     0  02:11        1.38
  YS02001920           JUNCTION     0.22     2.14     9.15     0  02:11        1.45
  YS02001923           JUNCTION     0.11     2.03     9.29     0  02:11        1.20
  YS02001926           JUNCTION     0.15     1.90     9.35     0  02:11        1.02
  YS02001929           JUNCTION     0.08     1.78     9.47     0  02:11        0.78
  YS02006553           JUNCTION     0.67     1.99     8.27     0  02:10        1.97
  YS02006556           JUNCTION     0.65     1.99     8.30     0  02:10        1.95
  YS02006558           JUNCTION     0.69     2.03     8.30     0  02:10        2.00
  YS02006561           JUNCTION     0.13     1.04     7.70     0  02:10        0.90
  YS02163301           JUNCTION     0.42     1.92     8.44     0  02:12        1.92
  YS02163601           JUNCTION     0.52     2.05     8.45     0  02:12        2.03
  YS02164001           JUNCTION     0.45     1.97     8.43     0  02:12        1.94
  CC-1                 OUTFALL      0.00     0.00     0.00     0  00:00        0.00
  CC-2                 OUTFALL      0.00     0.00     0.00     0  00:00        0.00
  JK-1                 OUTFALL      0.00     0.00     0.00     0  00:00        0.00
  JK-2                 OUTFALL      0.00     0.00     0.00     0  00:00        0.00
  WSC                  OUTFALL      0.17     0.30     0.97     0  02:50        0.30
  CC-storage           STORAGE      0.81     1.40     6.90     0  02:41        1.40
  JK-storage           STORAGE      1.82     4.22     5.02     0  02:30        4.11
  
  
  *******************
  Node Inflow Summary
  *******************
  
  -------------------------------------------------------------------------------------------------
                                  Maximum  Maximum                  Lateral       Total        Flow
                                  Lateral    Total  Time of Max      Inflow      Inflow     Balance
                                   Inflow   Inflow   Occurrence      Volume      Volume       Error
  Node                 Type           LPS      LPS  days hr:min    10^6 ltr    10^6 ltr     Percent
  -------------------------------------------------------------------------------------------------
  WS02003060           JUNCTION     16.53   548.33     0  02:48       0.476        4.25       0.056
  WS02003066           JUNCTION      0.00   531.68     0  02:48           0        3.78       0.037
  WS02003067           JUNCTION      0.00   531.62     0  02:48           0        3.78       0.112
  WS02003069           JUNCTION      0.32   548.66     0  02:48     0.00922        4.26       0.095
  WS02003072           JUNCTION      0.00   548.28     0  02:49           0        4.25       0.168
  WS02003073           JUNCTION      1.82   549.72     0  02:49      0.0524         4.3       0.137
  WS02004401           JUNCTION      0.00   536.51     0  02:45           0        3.88       0.270
  WS02004402           JUNCTION      0.00   535.35     0  02:45           0        3.87       0.274
  WS02004403           JUNCTION      0.00   535.24     0  02:45           0        3.86       0.266
  WS02004404           JUNCTION      0.16   535.14     0  02:45     0.00467        3.86       0.234
  WS02004405           JUNCTION      0.04   535.06     0  02:46      0.0011        3.85       0.318
  WS02004406           JUNCTION      0.00   535.41     0  02:46           0        3.84       0.550
  WS02004407           JUNCTION      0.00   534.82     0  02:46           0        3.82       0.033
  WS02004409           JUNCTION      0.00   534.57     0  02:46           0        3.81       0.074
  WS02004410           JUNCTION      0.00   533.55     0  02:47           0        3.81       0.120
  WS02004411           JUNCTION      0.00   532.95     0  02:47           0        3.81       0.151
  WS02004412           JUNCTION      0.00   532.23     0  02:47           0         3.8       0.201
  WS02004413           JUNCTION      0.00   531.95     0  02:47           0        3.79       0.355
  WS02006109           JUNCTION      1.23   571.82     0  02:37      0.0354        3.93       0.057
  WS02006110           JUNCTION      0.00   574.07     0  02:37           0        3.92       0.182
  WS02006111           JUNCTION      0.00   559.60     0  02:32           0        3.92       0.022
  WS02006112           JUNCTION      0.00   544.06     0  02:40           0        3.91       0.462
  WS02006113           JUNCTION      0.00   577.79     0  02:38           0        3.92       0.059
  WS02006115           JUNCTION      0.00   554.19     0  02:38           0         3.9       0.176
  WS02006116           JUNCTION      0.00   538.48     0  02:42           0        3.89       0.156
  WS02006228           JUNCTION      0.00   568.39     0  02:38           0        3.89       0.024
  WS02006229           JUNCTION      0.00   567.71     0  02:38           0         3.9       0.165
  WS02006230           JUNCTION     10.28   582.53     0  02:37       0.296        3.91       0.164
  WS02006231           JUNCTION      0.00   570.55     0  03:20           0        3.61      -0.096
  WS02006232           JUNCTION      0.00   569.46     0  03:20           0        3.62       0.377
  WS02006234           JUNCTION      0.00   565.31     0  03:20           0        3.61      -0.397
  WS02006235           JUNCTION      0.00   558.42     0  03:20           0        3.69       0.497
  WS02006238           JUNCTION      0.00   421.66     0  02:35           0         3.3      -0.435
  WS02006239           JUNCTION      0.00   421.83     0  02:35           0        3.24      -0.241
  WS02006240           JUNCTION      0.00   419.68     0  02:35           0         3.2      -0.170
  WS02006242           JUNCTION      0.00   419.83     0  02:35           0         3.2       0.015
  WS02006243           JUNCTION      0.00   419.17     0  02:35           0        3.19      -0.138
  WS02006245           JUNCTION      0.00   418.06     0  02:35           0        3.22       0.785
  WS02006247           JUNCTION      0.00   417.53     0  02:35           0        3.22       0.013
  WS02006248           JUNCTION      0.00   417.22     0  03:23           0        3.22       0.118
  WS02006249           JUNCTION      0.00   505.73     0  02:10           0         3.3       0.729
  WS02006251           JUNCTION      0.08   403.98     0  02:30     0.00222        3.31       0.059
  WS02006252           JUNCTION      0.00   400.00     0  00:00           0        3.29      -0.366
  WS02006256           JUNCTION      0.00   300.00     0  00:00           0       0.541      -3.974
  WSF200               JUNCTION      0.00   531.72     0  02:48           0        3.78       0.014
  YS02001580           JUNCTION      0.00   111.96     0  02:08           0     0.00407      -4.641
  YS02001583           JUNCTION      0.00   184.61     0  02:08           0      0.0149      -5.597
  YS02001586           JUNCTION    537.54   537.54     0  02:15        1.17        1.18       0.114
  YS02001590           JUNCTION      0.00   317.89     0  02:15           0        1.03      -0.034
  YS02001593           JUNCTION      0.00   317.98     0  02:16           0        1.03      -0.002
  YS02001596           JUNCTION      0.00   317.92     0  02:20           0        1.03      -0.008
  YS02001600           JUNCTION      0.00   317.95     0  02:16           0        1.03       0.002
  YS02001601           JUNCTION   1005.88  1323.55     0  02:14        1.66        2.69       0.033
  YS02001602           JUNCTION      0.00   525.04     0  02:07           0        1.88       0.021
  YS02001605           JUNCTION      0.00   524.77     0  02:07           0        1.82       0.024
  YS02001607           JUNCTION      0.00   526.18     0  02:07           0        1.82       0.112
  YS02001610           JUNCTION      0.00   529.96     0  02:07           0        1.84       0.132
  YS02001613           JUNCTION      0.00   532.96     0  02:07           0        1.59       0.112
  YS02001616           JUNCTION      0.00   532.28     0  02:07           0        1.59       0.021
  YS02001619           JUNCTION    959.56   959.56     0  02:15        1.86        3.42       0.003
  YS02001622           JUNCTION      0.00   935.33     0  02:09           0        3.38      -0.004
  YS02001625           JUNCTION      0.00  1045.91     0  02:16           0        3.41       0.269
  YS02001629           JUNCTION      0.00   938.22     0  02:07           0        2.99       0.020
  YS02001633           JUNCTION    755.19  1401.37     0  02:10         1.2        4.14       0.084
  YS02001641           JUNCTION      0.00  1422.72     0  02:10           0         4.1       0.068
  YS02001644           JUNCTION    678.57  1859.41     0  02:10        1.04        5.13       0.066
  YS02001647           JUNCTION      0.00  1865.07     0  02:10           0        5.07       0.007
  YS02001649           JUNCTION      0.00  2150.75     0  02:10           0        6.01       0.003
  YS02001652           JUNCTION      0.00   821.19     0  02:14           0       0.936      -0.107
  YS02001655           JUNCTION      0.15   821.90     0  02:14     0.00443       0.937       0.084
  YS02001658           JUNCTION      0.00   820.24     0  02:14           0       0.932      -0.053
  YS02001661           JUNCTION      0.00   787.15     0  02:13           0       0.933       0.017
  YS02001664           JUNCTION    664.26   664.26     0  02:14       0.932       0.932      -0.008
  YS02001745           JUNCTION    434.95   513.22     0  02:12       0.575       0.575       0.269
  YS02001748           JUNCTION      0.04   666.45     0  02:12      0.0013       0.576      -0.446
  YS02001751           JUNCTION      0.01   554.34     0  02:13    0.000317       0.583       0.077
  YS02001754           JUNCTION      0.26   554.58     0  02:13     0.00749       0.595      -0.252
  YS02001757           JUNCTION      0.00  3519.98     0  02:13           0        8.61       0.073
  YS02001759           JUNCTION    602.69  1394.27     0  02:12       0.791        2.01      -0.006
  YS02001762           JUNCTION      0.00   814.04     0  02:15           0        1.22       0.004
  YS02001765           JUNCTION      0.00   812.63     0  02:15           0        1.22       0.012
  YS02001767           JUNCTION      0.54   811.29     0  02:15      0.0154        1.22       0.007
  YS02001770           JUNCTION    841.90   841.90     0  02:14        1.22        1.26       0.012
  YS02001774           JUNCTION      0.00   338.46     0  02:11           0      0.0695       1.496
  YS02001779           JUNCTION      0.01   337.54     0  02:11    0.000144      0.0278      -1.979
  YS02001783           JUNCTION      0.00  1161.06     0  02:13           0         3.2       0.005
  YS02001784           JUNCTION      1.06  1162.13     0  02:12      0.0305        3.23       0.016
  YS02001786           JUNCTION      0.06  1162.65     0  02:13     0.00162        3.23       0.020
  YS02001788           JUNCTION      0.07  1162.54     0  02:13     0.00204        3.23       0.009
  YS02001790           JUNCTION      0.15  1168.44     0  02:14     0.00446        3.24       0.030
  YS02001791           JUNCTION      0.00  1286.93     0  02:14           0        3.23      -0.025
  YS02001793           JUNCTION      0.00  1238.77     0  02:11           0        3.23       0.007
  YS02001882           JUNCTION      0.00    53.11     0  02:09           0      0.0125       4.362
  YS02001884           JUNCTION      0.00    71.35     0  02:09           0      0.0484       5.563
  YS02001887           JUNCTION    665.25   666.53     0  02:13       0.837        0.87       0.509
  YS02001890           JUNCTION      0.00   667.53     0  02:13           0        0.83       0.609
  YS02001895           JUNCTION      0.00   515.95     0  02:16           0       0.792       0.166
  YS02001898           JUNCTION      0.00   515.75     0  02:15           0       0.791       0.033
  YS02001901           JUNCTION      0.00   516.04     0  02:16           0       0.793       0.402
  YS02001904           JUNCTION      0.00   515.94     0  02:16           0       0.797       0.358
  YS02001907           JUNCTION      0.00  1620.24     0  02:15           0        2.63       0.693
  YS02001910           JUNCTION      0.00  1105.72     0  02:15           0        1.84       0.382
  YS02001915           JUNCTION    734.70  1105.41     0  02:15        1.16        1.89       0.076
  YS02001918           JUNCTION      0.00   443.54     0  02:10           0       0.764       0.003
  YS02001920           JUNCTION      2.87   441.15     0  02:10      0.0827       0.745       0.119
  YS02001923           JUNCTION      0.04   439.63     0  02:10     0.00109       0.646      -0.164
  YS02001926           JUNCTION      0.05   640.06     0  02:11      0.0015       0.625      -0.252
  YS02001929           JUNCTION    350.03   523.20     0  02:11       0.608       0.611      -0.084
  YS02006553           JUNCTION      0.00   799.74     0  02:26           0        2.02       0.590
  YS02006556           JUNCTION      0.00   799.32     0  02:25           0        2.03       0.395
  YS02006558           JUNCTION    863.22  1163.88     0  02:10        1.22        3.23       0.107
  YS02006561           JUNCTION      0.00  1162.79     0  02:10           0         3.2      -0.000
  YS02163301           JUNCTION      0.00   933.18     0  02:09           0        2.98       0.054
  YS02163601           JUNCTION      0.11  1400.25     0  02:10     0.00317         4.1       0.120
  YS02164001           JUNCTION      0.00  1400.04     0  02:10           0         4.1       0.060
  CC-1                 OUTFALL       0.00   683.00     0  00:00           0        3.75       0.000
  CC-2                 OUTFALL       0.00   683.00     0  00:00           0        2.42       0.000
  JK-1                 OUTFALL       0.00  1000.00     0  00:00           0        1.67       0.000
  JK-2                 OUTFALL       0.00  1000.00     0  00:00           0        1.15       0.000
  WSC                  OUTFALL       0.00   549.16     0  02:50           0        4.29       0.000
  CC-storage           STORAGE       0.00  3521.94     0  02:13           0        10.8      -0.291
  JK-storage           STORAGE       0.00  1239.58     0  02:11           0        3.39      -0.515
  
  
  **********************
  Node Surcharge Summary
  **********************
  
  Surcharging occurs when water rises above the top of the highest conduit.
  ---------------------------------------------------------------------
                                               Max. Height   Min. Depth
                                   Hours       Above Crown    Below Rim
  Node                 Type      Surcharged         Meters       Meters
  ---------------------------------------------------------------------
  WS02006109           JUNCTION        1.28          0.359        1.461
  WS02006110           JUNCTION        0.19          0.297        1.553
  WS02006112           JUNCTION        0.18          0.087        1.593
  WS02006228           JUNCTION        1.27          0.520        1.680
  WS02006229           JUNCTION        1.29          0.597        1.853
  WS02006230           JUNCTION        0.20          0.543        1.027
  WS02006231           JUNCTION        0.24          0.811        0.719
  WS02006232           JUNCTION        1.34          0.712        0.768
  WS02006234           JUNCTION        0.36          0.674        0.566
  WS02006235           JUNCTION        1.28          0.742        0.548
  WS02006238           JUNCTION        1.31          0.762        0.668
  WS02006239           JUNCTION        1.29          0.714        0.576
  WS02006240           JUNCTION        1.30          0.761        0.629
  WS02006242           JUNCTION        1.39          0.820        0.000
  WS02006243           JUNCTION        1.31          0.719        0.051
  WS02006245           JUNCTION        1.31          0.646        0.204
  WS02006247           JUNCTION        1.32          0.588        0.172
  WS02006248           JUNCTION        1.30          0.380        0.000
  WS02006249           JUNCTION        1.32          0.390        0.000
  WS02006251           JUNCTION        0.26          0.517        0.663
  WS02006252           JUNCTION        1.88          1.100        0.000
  WS02006256           JUNCTION        6.75          2.050        0.000
  YS02001580           JUNCTION        0.41          0.450        0.000
  YS02001583           JUNCTION        0.41          0.407        0.093
  YS02001586           JUNCTION        0.51          0.510        0.000
  YS02001590           JUNCTION        0.58          0.750        0.000
  YS02001593           JUNCTION        0.58          0.840        0.000
  YS02001596           JUNCTION        0.67          0.954        0.116
  YS02001600           JUNCTION        0.80          1.190        0.000
  YS02001601           JUNCTION        1.15          1.440        0.000
  YS02001602           JUNCTION        1.03          1.270        0.000
  YS02001605           JUNCTION        0.98          1.178        0.002
  YS02001607           JUNCTION        0.53          0.645        0.035
  YS02001610           JUNCTION        0.55          0.680        0.000
  YS02001613           JUNCTION        0.52          0.671        0.029
  YS02001616           JUNCTION        0.48          0.610        0.000
  YS02001619           JUNCTION        0.48          0.610        0.000
  YS02001622           JUNCTION        0.47          0.589        0.031
  YS02001625           JUNCTION        0.63          0.780        0.000
  YS02001629           JUNCTION        0.42          0.470        0.000
  YS02001633           JUNCTION        0.64          1.023        0.037
  YS02001641           JUNCTION        0.56          0.962        0.138
  YS02001644           JUNCTION        0.51          0.920        0.000
  YS02001647           JUNCTION        0.33          0.794        0.106
  YS02001649           JUNCTION        0.40          0.998        0.052
  YS02001652           JUNCTION        0.26          0.862        0.268
  YS02001655           JUNCTION        0.15          0.927        0.273
  YS02001658           JUNCTION        0.07          0.936        0.364
  YS02001661           JUNCTION        0.01          0.268        1.122
  YS02001748           JUNCTION        0.01          0.808        0.382
  YS02001751           JUNCTION        0.10          1.063        0.137
  YS02001754           JUNCTION        0.16          0.850        0.300
  YS02001757           JUNCTION        0.42          1.060        0.150
  YS02001759           JUNCTION        0.34          1.013        0.197
  YS02001762           JUNCTION        0.33          1.023        0.127
  YS02001765           JUNCTION        0.29          0.997        0.103
  YS02001767           JUNCTION        0.26          0.960        0.070
  YS02001770           JUNCTION        0.25          0.920        0.000
  YS02001774           JUNCTION        0.32          0.999        0.051
  YS02001779           JUNCTION        0.18          0.680        0.000
  YS02001783           JUNCTION        0.40          0.516        1.084
  YS02001784           JUNCTION        0.38          0.392        1.098
  YS02001786           JUNCTION        0.28          0.125        1.305
  YS02001882           JUNCTION        0.35          0.757        0.073
  YS02001884           JUNCTION        0.36          0.771        0.099
  YS02001887           JUNCTION        0.39          0.810        0.140
  YS02001890           JUNCTION        0.40          0.760        0.000
  YS02001895           JUNCTION        0.34          0.582        0.168
  YS02001898           JUNCTION        0.33          0.568        0.172
  YS02001901           JUNCTION        0.38          0.708        0.162
  YS02001904           JUNCTION        0.37          0.661        0.189
  YS02001907           JUNCTION        0.58          0.950        0.000
  YS02001910           JUNCTION        0.42          0.971        0.129
  YS02001915           JUNCTION        0.35          0.917        0.083
  YS02001918           JUNCTION        0.27          0.810        0.000
  YS02001920           JUNCTION        0.29          1.140        0.000
  YS02001923           JUNCTION        0.01          0.820        0.000
  YS02001926           JUNCTION        0.03          0.900        0.000
  YS02001929           JUNCTION        0.01          0.780        0.000
  YS02006553           JUNCTION        0.59          0.990        0.200
  YS02006556           JUNCTION        0.50          0.945        0.405
  YS02006558           JUNCTION        0.49          0.934        0.466
  YS02006561           JUNCTION        0.24          0.245        0.905
  YS02163301           JUNCTION        0.62          0.924        0.106
  YS02163601           JUNCTION        0.67          1.052        0.028
  YS02164001           JUNCTION        0.57          0.970        0.130
  
  
  *********************
  Node Flooding Summary
  *********************
  
  Flooding refers to all water that overflows a node, whether it ponds or not.
  --------------------------------------------------------------------------
                                                             Total   Maximum
                                 Maximum   Time of Max       Flood    Ponded
                        Hours       Rate    Occurrence      Volume     Depth
  Node                 Flooded       LPS   days hr:min    10^6 ltr    Meters
  --------------------------------------------------------------------------
  WS02006242              0.01      1.62      0  02:30       0.000     0.000
  WS02006248              0.01     13.88      0  02:30       0.000     0.000
  WS02006249              0.25     91.31      0  02:38       0.060     0.000
  WS02006252              0.01    245.63      0  00:00       0.000     0.000
  WS02006256              0.50    293.19      0  00:00       0.154     0.000
  YS02001580              0.01     87.40      0  02:08       0.000     0.000
  YS02001586              0.31    219.90      0  02:15       0.132     0.000
  YS02001590              0.01      3.93      0  02:08       0.000     0.000
  YS02001593              0.01     34.96      0  02:06       0.000     0.000
  YS02001600              0.01      5.15      0  02:06       0.000     0.000
  YS02001601              0.45    925.58      0  02:14       0.805     0.000
  YS02001602              0.34     61.92      0  02:14       0.067     0.000
  YS02001610              0.29    442.57      0  02:16       0.284     0.000
  YS02001616              0.01      7.09      0  02:08       0.000     0.000
  YS02001619              0.01      2.23      0  02:10       0.000     0.000
  YS02001625              0.25   1045.71      0  02:16       0.452     0.000
  YS02001629              0.06    156.63      0  02:13       0.021     0.000
  YS02001644              0.06    457.51      0  02:13       0.054     0.000
  YS02001770              0.01     13.03      0  02:12       0.000     0.000
  YS02001779              0.04    288.14      0  02:11       0.012     0.000
  YS02001890              0.09    163.20      0  02:13       0.032     0.000
  YS02001907              0.23   1285.72      0  02:14       0.601     0.000
  YS02001918              0.01    259.82      0  02:11       0.003     0.000
  YS02001920              0.01     83.74      0  02:11       0.000     0.000
  YS02001923              0.01    146.29      0  02:11       0.000     0.000
  YS02001926              0.01    353.02      0  02:11       0.002     0.000
  YS02001929              0.01    195.30      0  02:11       0.001     0.000
  
  
  **********************
  Storage Volume Summary
  **********************
  
  ------------------------------------------------------------------------------------------------
                         Average    Avg   Evap  Exfil     Maximum    Max    Time of Max    Maximum
                          Volume   Pcnt   Pcnt   Pcnt      Volume   Pcnt     Occurrence    Outflow
  Storage Unit           1000 m³   Full   Loss   Loss     1000 m³   Full    days hr:min        LPS
  ------------------------------------------------------------------------------------------------
  CC-storage               2.244   35.0    0.0    0.0       3.902   60.9       0  02:41    1783.53
  JK-storage               0.092   31.5    0.0    0.0       0.212   72.7       0  02:30    2300.00
  
  
  ***********************
  Outfall Loading Summary
  ***********************
  
  -----------------------------------------------------------
                         Flow       Avg       Max       Total
                         Freq      Flow      Flow      Volume
  Outfall Node           Pcnt       LPS       LPS    10^6 ltr
  -----------------------------------------------------------
  CC-1                  26.86    683.00    683.00       3.755
  CC-2                  20.30    683.00    683.00       2.424
  JK-1                   9.35   1000.00   1000.00       1.670
  JK-2                   5.59   1000.00   1000.00       1.151
  WSC                   99.95    218.60    549.16       4.293
  -----------------------------------------------------------
  System                32.41   3584.60   3593.97      13.292
  
  
  ********************
  Link Flow Summary
  ********************
  
  -----------------------------------------------------------------------------
                                 Maximum  Time of Max   Maximum    Max/    Max/
                                  |Flow|   Occurrence   |Veloc|    Full    Full
  Link                 Type          LPS  days hr:min     m/sec    Flow   Depth
  -----------------------------------------------------------------------------
  1                    CONDUIT    549.16     0  02:50      2.82    0.19    0.30
  WS02003060WS02003069 CONDUIT    548.34     0  02:48      1.64    0.21    0.34
  WS02003066WSF200     CONDUIT    531.72     0  02:48      2.84    0.09    0.22
  WS02003067WS02003066 CONDUIT    531.68     0  02:48      1.20    0.17    0.41
  WS02003069WS02003072 CONDUIT    548.28     0  02:49      1.37    0.26    0.39
  WS02003072WS02003073 CONDUIT    547.89     0  02:49      1.43    1.18    0.37
  WS02004401WS02004402 CONDUIT    535.35     0  02:45      0.98    0.64    0.86
  WS02004402WS02004403 CONDUIT    535.24     0  02:45      0.97    0.77    0.88
  WS02004403WS02004404 CONDUIT    534.97     0  02:45      0.92    0.39    0.93
  WS02004404WS02004405 CONDUIT    535.02     0  02:46      1.08    5.24    0.96
  WS02004405WS02004406 CONDUIT    535.41     0  02:46      0.99    1.06    0.95
  WS02004406WS02004407 CONDUIT    534.82     0  02:46      1.04    0.24    0.62
  WS02004407WS02004409 CONDUIT    534.57     0  02:46      1.47    0.19    0.48
  WS02004409WS02004410 CONDUIT    533.55     0  02:47      0.97    0.69    0.67
  WS02004410WS02004411 CONDUIT    532.95     0  02:47      0.93    0.73    0.68
  WS02004411WS02004412 CONDUIT    532.23     0  02:47      0.92    0.76    0.69
  WS02004412WS02004413 CONDUIT    531.95     0  02:47      0.81    0.36    0.77
  WS02004413WS02003067 CONDUIT    531.62     0  02:48      1.10    0.23    0.59
  WS02006109WS02006110 CONDUIT    574.07     0  02:37      1.14    1.10    1.00
  WS02006110WS02006113 CONDUIT    577.79     0  02:38      1.40    0.53    0.79
  WS02006111WS02006112 CONDUIT    544.06     0  02:40      1.81    0.26    0.67
  WS02006112WS02006115 CONDUIT    554.19     0  02:38      0.78    0.33    0.87
  WS02006113WS02006111 CONDUIT    559.60     0  02:32      2.47    0.67    0.46
  WS02006115WS02006116 CONDUIT    538.48     0  02:42      0.97    0.69    0.76
  WS02006116WS02004401 CONDUIT    536.51     0  02:45      0.98    0.74    0.84
  WS02006228WS02006109 CONDUIT    570.59     0  02:37      1.14    2.49    1.00
  WS02006229WS02006228 CONDUIT    568.39     0  02:38      1.14    1.88    1.00
  WS02006230WS02006229 CONDUIT    567.71     0  02:38      1.48   12.63    1.00
  WS02006231WS02006230 CONDUIT    572.25     0  02:37      1.55    8.68    1.00
  WS02006232WS02006231 CONDUIT    570.55     0  03:20      1.48    1.20    1.00
  WS02006234WS02006232 CONDUIT    569.46     0  03:20      1.48    1.15    1.00
  WS02006235WS02006234 CONDUIT    565.31     0  03:20      1.47    5.96    1.00
  WS02006238WS02006235 CONDUIT    422.60     0  02:35      1.48    0.94    1.00
  WS02006239WS02006238 CONDUIT    421.66     0  02:35      1.21    1.35    1.00
  WS02006240WS02006239 CONDUIT    421.83     0  02:35      1.31    1.33    1.00
  WS02006242WS02006240 CONDUIT    419.68     0  02:35      1.18    1.67    1.00
  WS02006243WS02006242 CONDUIT    419.83     0  02:35      1.43    0.90    1.00
  WS02006245WS02006243 CONDUIT    419.17     0  02:35      1.45    1.24    1.00
  WS02006247WS02006245 CONDUIT    418.06     0  02:35      1.43    3.31    1.00
  WS02006248WS02006247 CONDUIT    417.53     0  02:35      1.46    0.91    1.00
  WS02006249WS02006248 CONDUIT    417.22     0  03:23      1.39    2.29    1.00
  WS02006251WS02006249 CONDUIT    505.73     0  02:10      2.04    1.46    1.00
  WS02006252WS02006251 CONDUIT    403.90     0  02:30     24.61    1.48    1.00
  WS02006256WS02006235 CONDUIT    288.97     0  01:50      4.23    3.06    1.00
  WSF200WS02003060     CONDUIT    531.80     0  02:48      2.06    0.12    0.28
  YS02001580YS02001583 CONDUIT    111.96     0  02:08      0.72    0.43    1.00
  YS02001583YS02001586 CONDUIT    169.15     0  02:07      0.75    0.26    1.00
  YS02001586YS02001590 CONDUIT    317.89     0  02:15      1.26    0.56    1.00
  YS02001590YS02001593 CONDUIT    317.98     0  02:16      1.12    2.00    1.00
  YS02001593YS02001596 CONDUIT    317.92     0  02:20      1.74    0.50    1.00
  YS02001596YS02001600 CONDUIT    317.95     0  02:16      1.23    0.62    1.00
  YS02001600YS02001601 CONDUIT    317.84     0  02:15      1.12    0.55    1.00
  YS02001601YS02001602 CONDUIT    525.04     0  02:07      1.86    1.90    1.00
  YS02001602YS02001605 CONDUIT    524.77     0  02:07      1.86   11.11    1.00
  YS02001605YS02001607 CONDUIT    526.18     0  02:07      1.86    2.89    1.00
  YS02001607YS02001610 CONDUIT    529.96     0  02:07      0.67    0.50    1.00
  YS02001610YS02001613 CONDUIT    532.96     0  02:07      0.68    0.61    1.00
  YS02001613YS02001616 CONDUIT    532.28     0  02:07      0.68    0.46    1.00
  YS02001616YS02001619 CONDUIT    504.74     0  02:07      0.67    0.88    1.00
  YS02001619YS02001622 CONDUIT    935.33     0  02:09      1.20    1.38    1.00
  YS02001622YS02001625 CONDUIT    936.88     0  02:10      1.19    0.50    1.00
  YS02001625YS02001629 CONDUIT    938.22     0  02:07      1.20    0.45    1.00
  YS02001629YS02163301 CONDUIT    933.18     0  02:09      1.19    1.15    1.00
  YS02001633YS02163601 CONDUIT   1400.14     0  02:10      1.78    1.47    1.00
  YS02001641YS02001644 CONDUIT   1435.39     0  02:10      1.83    4.64    1.00
  YS02001644YS02001647 CONDUIT   1865.07     0  02:10      2.38    1.10    1.00
  YS02001647YS02001649 CONDUIT   1849.46     0  02:10      2.39    0.98    1.00
  YS02001649YS02001757 CONDUIT   2148.05     0  02:10      2.74    1.30    1.00
  YS02001652YS02001649 CONDUIT    822.50     0  02:14      1.05    0.41    1.00
  YS02001655YS02001652 CONDUIT    821.19     0  02:14      1.32    0.40    1.00
  YS02001658YS02001655 CONDUIT    821.74     0  02:14      1.95    0.35    1.00
  YS02001661YS02001658 CONDUIT    820.24     0  02:14      2.39    0.32    1.00
  YS02001664YS02001661 CONDUIT    787.15     0  02:13      2.43    0.25    0.80
  YS02001745YS02001748 CONDUIT    666.40     0  02:12      2.29    0.26    0.93
  YS02001748YS02001751 CONDUIT    554.33     0  02:13      1.77    0.28    1.00
  YS02001751YS02001754 CONDUIT    554.32     0  02:13      1.46    0.27    1.00
  YS02001754YS02001757 CONDUIT    555.25     0  02:13      0.71    0.22    1.00
  YS02001757CaochengTiaoxuchi CONDUIT   3521.94     0  02:13      4.82    1.52    1.00
  YS02001759YS02001757 CONDUIT   1391.60     0  02:12      1.77    0.99    1.00
  YS02001762YS02001759 CONDUIT    814.96     0  02:15      1.04    0.94    1.00
  YS02001765YS02001762 CONDUIT    814.04     0  02:15      1.04    0.76    1.00
  YS02001767YS02001765 CONDUIT    812.63     0  02:15      1.03    1.02    1.00
  YS02001770YS02001767 CONDUIT    810.76     0  02:15      1.03    3.21    1.00
  YS02001774YS02001770 CONDUIT    338.46     0  02:11      0.43    0.22    1.00
  YS02001779YS02001774 CONDUIT    337.53     0  02:11      0.43    0.17    1.00
  YS02001783YS02001784 CONDUIT   1161.07     0  02:12      2.31    1.60    1.00
  YS02001784YS02001785 CONDUIT   1162.60     0  02:13      2.31    2.71    1.00
  YS02001786YS02001788 CONDUIT   1162.47     0  02:13      2.48    2.24    0.89
  YS02001788YS02001790 CONDUIT   1168.29     0  02:14      2.71    0.86    0.84
  YS02001790YS02001791 CONDUIT   1286.93     0  02:14      3.42    1.40    0.70
  YS02001791YS02001793 CONDUIT   1238.77     0  02:11      6.78    0.53    0.43
  YS02001793JiankangQianchi CONDUIT   1239.58     0  02:11      2.49    0.10    0.63
  YS02001882YS02001884 CONDUIT     53.11     0  02:09      0.09    0.06    1.00
  YS02001884YS02001887 CONDUIT     71.35     0  02:09      0.09    0.10    1.00
  YS02001887YS02001890 CONDUIT    667.53     0  02:13      0.85    1.14    1.00
  YS02001890YS02001895 CONDUIT    515.95     0  02:16      0.66    0.24    1.00
  YS02001895YS02001898 CONDUIT    515.75     0  02:15      0.66    0.89    1.00
  YS02001898YS02001901 CONDUIT    516.04     0  02:16      0.66    0.33    1.00
  YS02001901YS02001904 CONDUIT    515.94     0  02:16      0.66    0.80    1.00
  YS02001904YS02001907 CONDUIT    515.99     0  02:15      0.66    0.18    1.00
  YS02001907YS02006553 CONDUIT    799.74     0  02:26      0.89    0.94    1.00
  YS02001910YS02001907 CONDUIT   1105.76     0  02:15      1.41    0.62    1.00
  YS02001915YS02001910 CONDUIT   1105.72     0  02:15      1.41    0.55    1.00
  YS02001918YS02001915 CONDUIT    443.54     0  02:10      0.56    0.24    1.00
  YS02001920YS02001918 CONDUIT    441.96     0  02:12      0.67    0.43    1.00
  YS02001923YS02001920 CONDUIT    439.60     0  02:10      0.69    0.20    1.00
  YS02001926YS02001923 CONDUIT    414.79     0  02:11      0.97    0.59    1.00
  YS02001929YS02001926 CONDUIT    400.96     0  02:11      1.15    0.19    1.00
  YS02006553YS02006556 CONDUIT    799.32     0  02:25      1.02    0.68    1.00
  YS02006556YS02006558 CONDUIT    800.23     0  02:26      1.02    0.63    1.00
  YS02006558YS02006561 CONDUIT   1162.79     0  02:10      4.11    2.57    1.00
  YS02006561YS02001783 CONDUIT   1161.06     0  02:13      2.31    0.60    1.00
  YS02163301YS02001633 CONDUIT    932.94     0  02:09      1.19    0.88    1.00
  YS02163601YS02164001 CONDUIT   1400.04     0  02:10      1.78    1.24    1.00
  YS02164001YS02001641 CONDUIT   1422.72     0  02:10      1.81    1.94    1.00
  CC-R1                PUMP       683.00     0  00:00              1.00
  CC-R2                PUMP       683.00     0  00:00              1.00
  CC-S1                PUMP       200.00     0  00:00              1.00
  CC-S2                PUMP       200.00     0  00:00              1.00
  JK-R1                PUMP      1000.00     0  00:00              1.00
  JK-R2                PUMP      1000.00     0  00:00              1.00
  JK-S                 PUMP       300.00     0  00:00              1.00
  
  
  ***************************
  Flow Classification Summary
  ***************************
  
  -------------------------------------------------------------------------------------
                      Adjusted    ---------- Fraction of Time in Flow Class ---------- 
                       /Actual         Up    Down  Sub   Sup   Up    Down  Norm  Inlet 
  Conduit               Length    Dry  Dry   Dry   Crit  Crit  Crit  Crit  Ltd   Ctrl  
  -------------------------------------------------------------------------------------
  1                       1.00   0.00  0.00  0.00  0.00  1.00  0.00  0.00  0.29  0.00
  WS02003060WS02003069    1.00   0.00  0.00  0.00  0.97  0.03  0.00  0.00  0.75  0.00
  WS02003066WSF200        1.00   0.13  0.00  0.00  0.00  0.87  0.00  0.00  0.82  0.00
  WS02003067WS02003066    1.00   0.10  0.02  0.00  0.88  0.00  0.00  0.00  0.00  0.00
  WS02003069WS02003072    1.00   0.00  0.00  0.00  0.99  0.01  0.00  0.00  0.81  0.00
  WS02003072WS02003073    1.00   0.00  0.00  0.00  0.00  0.00  0.00  1.00  0.00  0.00
  WS02004401WS02004402    1.00   0.02  0.00  0.00  0.98  0.00  0.00  0.00  0.00  0.00
  WS02004402WS02004403    1.00   0.02  0.00  0.00  0.97  0.00  0.00  0.00  0.00  0.00
  WS02004403WS02004404    1.00   0.00  0.03  0.00  0.97  0.00  0.00  0.00  0.00  0.00
  WS02004404WS02004405    1.00   0.00  0.00  0.00  1.00  0.00  0.00  0.00  0.01  0.00
  WS02004405WS02004406    1.00   0.00  0.00  0.00  1.00  0.00  0.00  0.00  0.00  0.00
  WS02004406WS02004407    1.00   0.00  0.05  0.00  0.95  0.00  0.00  0.00  0.00  0.00
  WS02004407WS02004409    1.00   0.05  0.00  0.00  0.94  0.01  0.00  0.00  0.94  0.00
  WS02004409WS02004410    1.00   0.05  0.00  0.00  0.95  0.00  0.00  0.00  0.03  0.00
  WS02004410WS02004411    1.00   0.05  0.00  0.00  0.95  0.00  0.00  0.00  0.01  0.00
  WS02004411WS02004412    1.00   0.05  0.00  0.00  0.95  0.00  0.00  0.00  0.00  0.00
  WS02004412WS02004413    1.00   0.05  0.00  0.00  0.94  0.00  0.00  0.00  0.01  0.00
  WS02004413WS02003067    1.00   0.06  0.04  0.00  0.00  0.00  0.90  0.00  0.00  0.00
  WS02006109WS02006110    1.00   0.00  0.01  0.00  0.98  0.00  0.01  0.00  0.00  0.00
  WS02006110WS02006113    1.00   0.01  0.01  0.00  0.98  0.00  0.00  0.00  0.00  0.00
  WS02006111WS02006112    1.00   0.02  0.00  0.00  0.98  0.00  0.00  0.00  0.98  0.00
  WS02006112WS02006115    1.00   0.02  0.00  0.00  0.97  0.00  0.00  0.00  0.00  0.00
  WS02006113WS02006111    1.00   0.02  0.00  0.00  0.00  0.98  0.00  0.00  0.15  0.00
  WS02006115WS02006116    1.00   0.02  0.00  0.00  0.97  0.00  0.00  0.01  0.00  0.00
  WS02006116WS02004401    1.00   0.02  0.00  0.00  0.98  0.00  0.00  0.00  0.00  0.00
  WS02006228WS02006109    1.00   0.00  0.00  0.00  1.00  0.00  0.00  0.00  0.01  0.00
  WS02006229WS02006228    1.00   0.00  0.00  0.00  0.99  0.00  0.00  0.01  0.00  0.00
  WS02006230WS02006229    1.00   0.00  0.00  0.00  0.99  0.00  0.00  0.01  0.02  0.00
  WS02006231WS02006230    1.00   0.00  0.00  0.00  0.18  0.00  0.81  0.00  0.00  0.00
  WS02006232WS02006231    1.00   0.00  0.00  0.00  0.99  0.00  0.01  0.00  0.00  0.00
  WS02006234WS02006232    1.00   0.00  0.00  0.00  1.00  0.00  0.00  0.00  0.05  0.00
  WS02006235WS02006234    1.00   0.00  0.00  0.00  0.90  0.00  0.10  0.00  0.00  0.00
  WS02006238WS02006235    1.00   0.00  0.00  0.00  1.00  0.00  0.00  0.00  0.00  0.00
  WS02006239WS02006238    1.00   0.00  0.00  0.00  1.00  0.00  0.00  0.00  0.18  0.00
  WS02006240WS02006239    1.00   0.00  0.00  0.00  0.66  0.00  0.00  0.34  0.04  0.00
  WS02006242WS02006240    1.00   0.00  0.00  0.00  0.99  0.00  0.01  0.00  0.00  0.00
  WS02006243WS02006242    1.00   0.00  0.00  0.00  0.99  0.00  0.00  0.01  0.58  0.00
  WS02006245WS02006243    1.00   0.00  0.00  0.00  0.82  0.00  0.00  0.17  0.01  0.00
  WS02006247WS02006245    1.00   0.00  0.00  0.00  0.95  0.00  0.00  0.05  0.00  0.00
  WS02006248WS02006247    1.00   0.00  0.00  0.00  0.98  0.00  0.00  0.02  0.50  0.00
  WS02006249WS02006248    1.00   0.00  0.00  0.00  0.44  0.00  0.56  0.00  0.00  0.00
  WS02006251WS02006249    1.00   0.00  0.00  0.00  0.99  0.01  0.00  0.00  0.59  0.00
  WS02006252WS02006251    1.00   0.02  0.56  0.00  0.03  0.00  0.39  0.00  0.00  0.00
  WS02006256WS02006235    1.00   0.00  0.00  0.00  0.98  0.02  0.00  0.00  0.00  0.00
  WSF200WS02003060        1.00   0.00  0.13  0.00  0.34  0.53  0.00  0.00  0.58  0.00
  YS02001580YS02001583    1.00   0.26  0.57  0.00  0.16  0.00  0.00  0.00  0.67  0.00
  YS02001583YS02001586    1.00   0.43  0.35  0.00  0.22  0.00  0.00  0.00  0.67  0.00
  YS02001586YS02001590    1.00   0.13  0.00  0.00  0.41  0.05  0.00  0.42  0.37  0.00
  YS02001590YS02001593    1.00   0.13  0.01  0.00  0.08  0.00  0.78  0.00  0.00  0.00
  YS02001593YS02001596    1.00   0.14  0.00  0.00  0.10  0.01  0.00  0.76  0.02  0.00
  YS02001596YS02001600    1.00   0.14  0.00  0.00  0.16  0.01  0.00  0.68  0.05  0.00
  YS02001600YS02001601    1.00   0.13  0.01  0.00  0.86  0.00  0.00  0.00  0.63  0.00
  YS02001601YS02001602    1.00   0.13  0.01  0.00  0.86  0.00  0.00  0.00  0.00  0.00
  YS02001602YS02001605    1.00   0.14  0.00  0.00  0.86  0.00  0.00  0.00  0.00  0.00
  YS02001605YS02001607    1.00   0.14  0.00  0.00  0.86  0.00  0.00  0.00  0.00  0.00
  YS02001607YS02001610    1.00   0.13  0.01  0.00  0.86  0.00  0.00  0.00  0.02  0.00
  YS02001610YS02001613    1.00   0.13  0.00  0.00  0.87  0.00  0.00  0.00  0.01  0.00
  YS02001613YS02001616    1.00   0.13  0.00  0.00  0.87  0.00  0.00  0.00  0.01  0.00
  YS02001616YS02001619    1.00   0.13  0.00  0.00  0.87  0.00  0.00  0.00  0.00  0.00
  YS02001619YS02001622    1.00   0.13  0.00  0.00  0.87  0.00  0.00  0.00  0.29  0.00
  YS02001622YS02001625    1.00   0.13  0.00  0.00  0.87  0.00  0.00  0.00  0.06  0.00
  YS02001625YS02001629    1.00   0.13  0.06  0.00  0.12  0.00  0.69  0.00  0.00  0.00
  YS02001629YS02163301    1.00   0.17  0.01  0.00  0.82  0.00  0.00  0.00  0.00  0.00
  YS02001633YS02163601    1.00   0.00  0.01  0.00  0.99  0.00  0.00  0.00  0.15  0.00
  YS02001641YS02001644    1.00   0.00  0.01  0.00  0.99  0.00  0.00  0.00  0.00  0.00
  YS02001644YS02001647    1.00   0.00  0.19  0.00  0.81  0.00  0.00  0.00  0.00  0.00
  YS02001647YS02001649    1.00   0.00  0.19  0.00  0.51  0.30  0.00  0.00  0.57  0.00
  YS02001649YS02001757    1.00   0.00  0.00  0.00  0.82  0.18  0.00  0.00  0.43  0.00
  YS02001652YS02001649    1.00   0.00  0.00  0.00  0.95  0.05  0.00  0.00  0.77  0.00
  YS02001655YS02001652    1.00   0.00  0.00  0.00  0.15  0.02  0.00  0.83  0.07  0.00
  YS02001658YS02001655    1.00   0.00  0.15  0.00  0.62  0.23  0.00  0.00  0.74  0.00
  YS02001661YS02001658    1.00   0.15  0.00  0.00  0.45  0.40  0.00  0.00  0.73  0.00
  YS02001664YS02001661    1.00   0.13  0.00  0.00  0.77  0.11  0.00  0.00  0.86  0.00
  YS02001745YS02001748    1.00   0.00  0.00  0.00  0.04  0.01  0.00  0.95  0.04  0.00
  YS02001748YS02001751    1.00   0.00  0.00  0.00  0.80  0.20  0.00  0.00  0.80  0.00
  YS02001751YS02001754    1.00   0.00  0.00  0.00  0.12  0.01  0.00  0.87  0.04  0.00
  YS02001754YS02001757    1.00   0.00  0.00  0.00  1.00  0.00  0.00  0.00  0.85  0.00
  YS02001757CaochengTiaoxuchi    1.00   0.00  0.00  0.00  0.95  0.05  0.00  0.00  0.70  0.00
  YS02001759YS02001757    1.00   0.00  0.00  0.00  1.00  0.00  0.00  0.00  0.55  0.00
  YS02001762YS02001759    1.00   0.00  0.00  0.00  1.00  0.00  0.00  0.00  0.07  0.00
  YS02001765YS02001762    1.00   0.00  0.00  0.00  1.00  0.00  0.00  0.00  0.72  0.00
  YS02001767YS02001765    1.00   0.00  0.00  0.00  1.00  0.00  0.00  0.00  0.00  0.00
  YS02001770YS02001767    1.00   0.00  0.00  0.00  1.00  0.00  0.00  0.00  0.00  0.00
  YS02001774YS02001770    1.00   0.00  0.14  0.00  0.69  0.00  0.17  0.00  0.04  0.00
  YS02001779YS02001774    1.00   0.00  0.00  0.00  1.00  0.00  0.00  0.00  0.81  0.00
  YS02001783YS02001784    1.00   0.00  0.20  0.00  0.80  0.00  0.00  0.00  0.56  0.00
  YS02001784YS02001785    1.00   0.00  0.00  0.00  1.00  0.00  0.00  0.00  0.19  0.00
  YS02001786YS02001788    1.00   0.00  0.00  0.00  0.80  0.20  0.00  0.00  0.00  0.00
  YS02001788YS02001790    1.00   0.00  0.00  0.00  0.22  0.78  0.00  0.00  0.83  0.00
  YS02001790YS02001791    1.00   0.00  0.00  0.00  0.01  0.99  0.00  0.00  0.15  0.00
  YS02001791YS02001793    1.00   0.00  0.00  0.00  0.00  1.00  0.00  0.00  0.00  0.00
  YS02001793JiankangQianchi    1.00   0.00  0.00  0.00  0.97  0.03  0.00  0.00  0.98  0.00
  YS02001882YS02001884    1.00   0.16  0.01  0.00  0.83  0.00  0.00  0.00  0.00  0.00
  YS02001884YS02001887    1.00   0.06  0.05  0.00  0.89  0.00  0.00  0.00  0.00  0.00
  YS02001887YS02001890    1.00   0.00  0.00  0.00  0.97  0.00  0.03  0.00  0.00  0.00
  YS02001890YS02001895    1.00   0.00  0.18  0.00  0.82  0.00  0.00  0.00  0.00  0.00
  YS02001895YS02001898    1.00   0.18  0.00  0.00  0.80  0.00  0.02  0.00  0.00  0.00
  YS02001898YS02001901    1.00   0.18  0.00  0.00  0.82  0.00  0.00  0.00  0.01  0.00
  YS02001901YS02001904    1.00   0.18  0.00  0.00  0.82  0.00  0.00  0.00  0.00  0.00
  YS02001904YS02001907    1.00   0.00  0.17  0.00  0.82  0.00  0.00  0.00  0.00  0.00
  YS02001907YS02006553    1.00   0.00  0.02  0.00  0.98  0.00  0.00  0.00  0.00  0.00
  YS02001910YS02001907    1.00   0.00  0.00  0.00  0.97  0.00  0.00  0.03  0.12  0.00
  YS02001915YS02001910    1.00   0.00  0.00  0.00  0.96  0.04  0.00  0.00  0.18  0.00
  YS02001918YS02001915    1.00   0.00  0.01  0.00  0.98  0.02  0.00  0.00  0.77  0.00
  YS02001920YS02001918    1.00   0.00  0.01  0.00  0.99  0.00  0.00  0.00  0.00  0.00
  YS02001923YS02001920    1.00   0.00  0.00  0.00  1.00  0.00  0.00  0.00  0.94  0.00
  YS02001926YS02001923    1.00   0.00  0.07  0.00  0.04  0.00  0.88  0.00  0.00  0.00
  YS02001929YS02001926    1.00   0.00  0.13  0.00  0.87  0.00  0.00  0.00  0.84  0.00
  YS02006553YS02006556    1.00   0.01  0.00  0.00  0.99  0.00  0.00  0.00  0.03  0.00
  YS02006556YS02006558    1.00   0.00  0.00  0.00  1.00  0.00  0.00  0.00  0.00  0.00
  YS02006558YS02006561    1.00   0.20  0.00  0.00  0.04  0.76  0.00  0.00  0.19  0.00
  YS02006561YS02001783    1.00   0.20  0.00  0.00  0.07  0.74  0.00  0.00  0.70  0.00
  YS02163301YS02001633    1.00   0.00  0.16  0.00  0.84  0.00  0.00  0.00  0.00  0.00
  YS02163601YS02164001    1.00   0.00  0.08  0.00  0.92  0.00  0.00  0.00  0.00  0.00
  YS02164001YS02001641    1.00   0.01  0.07  0.00  0.92  0.00  0.00  0.00  0.06  0.00
  
  
  *************************
  Conduit Surcharge Summary
  *************************
  
  ----------------------------------------------------------------------------
                                                           Hours        Hours 
                         --------- Hours Full --------   Above Full   Capacity
  Conduit                Both Ends  Upstream  Dnstream   Normal Flow   Limited
  ----------------------------------------------------------------------------
  WS02003072WS02003073        0.01      0.01      0.01      0.37         0.01
  WS02004404WS02004405        0.01      0.01      0.01      3.05         0.01
  WS02004405WS02004406        0.01      0.01      0.01      0.16         0.01
  WS02006109WS02006110        0.19      0.19      1.33      0.24         0.01
  WS02006110WS02006113        0.01      0.01      1.31      0.01         0.01
  WS02006111WS02006112        0.01      0.01      1.54      0.01         0.01
  WS02006112WS02006115        0.01      0.01      0.18      0.01         0.01
  WS02006228WS02006109        1.28      1.34      1.28      1.90         1.28
  WS02006229WS02006228        1.27      1.29      1.27      1.57         1.27
  WS02006230WS02006229        1.43      1.52      1.43      3.71         1.43
  WS02006231WS02006230        0.20      0.20      0.26      3.21         0.01
  WS02006232WS02006231        0.24      0.24      1.34      0.26         0.01
  WS02006234WS02006232        1.24      1.24      1.34      0.26         0.26
  WS02006235WS02006234        0.36      0.36      1.28      2.94         0.01
  WS02006238WS02006235        1.29      1.29      1.35      0.01         0.01
  WS02006239WS02006238        1.31      1.34      1.31      1.58         1.27
  WS02006240WS02006239        1.29      1.30      1.29      1.60         1.24
  WS02006242WS02006240        1.30      1.30      1.45      1.77         0.01
  WS02006243WS02006242        1.31      1.31      1.39      0.01         0.01
  WS02006245WS02006243        1.31      1.31      1.31      1.46         1.10
  WS02006247WS02006245        1.31      1.33      1.31      2.61         1.30
  WS02006248WS02006247        1.31      1.31      1.32      0.01         0.01
  WS02006249WS02006248        1.30      1.30      1.32      2.57         0.01
  WS02006251WS02006249        1.32      1.32      1.32      1.79         1.29
  WS02006252WS02006251        1.87      1.87      1.88      1.88         0.01
  WS02006256WS02006235        3.04      3.06      6.69      0.53         0.01
  YS02001580YS02001583        0.41      0.41      0.45      0.01         0.01
  YS02001583YS02001586        0.41      0.41      0.51      0.01         0.01
  YS02001586YS02001590        0.52      0.52      0.58      0.01         0.01
  YS02001590YS02001593        0.58      0.58      0.59      0.61         0.01
  YS02001593YS02001596        0.59      0.59      0.67      0.01         0.01
  YS02001596YS02001600        0.71      0.71      0.80      0.01         0.01
  YS02001600YS02001601        0.86      0.86      1.15      0.01         0.01
  YS02001601YS02001602        1.03      1.03      1.18      0.82         0.01
  YS02001602YS02001605        0.98      0.98      1.03      2.02         0.01
  YS02001605YS02001607        0.93      0.98      0.93      1.11         0.93
  YS02001607YS02001610        0.53      0.53      0.55      0.01         0.01
  YS02001610YS02001613        0.52      0.52      0.55      0.01         0.01
  YS02001613YS02001616        0.48      0.48      0.52      0.01         0.01
  YS02001616YS02001619        0.48      0.48      0.48      0.01         0.01
  YS02001619YS02001622        0.47      0.48      0.47      0.61         0.46
  YS02001622YS02001625        0.47      0.47      0.63      0.01         0.01
  YS02001625YS02001629        0.42      0.42      0.63      0.01         0.01
  YS02001629YS02163301        0.61      0.61      0.62      0.26         0.25
  YS02001633YS02163601        0.64      0.64      0.67      0.39         0.38
  YS02001641YS02001644        0.51      0.56      0.51      1.23         0.51
  YS02001644YS02001647        0.34      0.34      0.51      0.05         0.01
  YS02001647YS02001649        0.33      0.33      0.40      0.01         0.01
  YS02001649YS02001757        0.39      0.40      0.42      0.32         0.27
  YS02001652YS02001649        0.27      0.27      0.40      0.01         0.01
  YS02001655YS02001652        0.15      0.15      0.26      0.01         0.01
  YS02001658YS02001655        0.07      0.07      0.15      0.01         0.01
  YS02001661YS02001658        0.01      0.01      0.07      0.01         0.01
  YS02001664YS02001661        0.01      0.01      0.02      0.01         0.01
  YS02001745YS02001748        0.01      0.01      0.01      0.01         0.01
  YS02001748YS02001751        0.05      0.05      0.10      0.01         0.01
  YS02001751YS02001754        0.10      0.10      0.16      0.01         0.01
  YS02001754YS02001757        0.19      0.19      0.42      0.01         0.01
  YS02001757CaochengTiaoxuchi        0.26      0.42      1.32      0.31         0.11
  YS02001759YS02001757        0.34      0.34      0.42      0.01         0.02
  YS02001762YS02001759        0.33      0.33      0.34      0.01         0.02
  YS02001765YS02001762        0.29      0.29      0.33      0.01         0.01
  YS02001767YS02001765        0.26      0.26      0.29      0.01         0.03
  YS02001770YS02001767        0.26      0.27      0.26      0.40         0.25
  YS02001774YS02001770        0.25      0.25      0.32      0.01         0.01
  YS02001779YS02001774        0.18      0.18      0.32      0.01         0.01
  YS02001783YS02001784        0.37      0.40      0.37      0.52         0.37
  YS02001784YS02001785        0.28      0.37      0.28      0.70         0.28
  YS02001786YS02001788        0.01      0.28      0.01      0.60         0.01
  YS02001790YS02001791        0.01      0.01      0.01      0.36         0.01
  YS02001793JiankangQianchi        0.01      0.01      7.02      0.01         0.01
  YS02001882YS02001884        0.35      0.35      0.36      0.01         0.01
  YS02001884YS02001887        0.38      0.38      0.39      0.01         0.01
  YS02001887YS02001890        0.40      0.40      0.41      0.06         0.01
  YS02001890YS02001895        0.34      0.34      0.42      0.01         0.01
  YS02001895YS02001898        0.33      0.33      0.34      0.01         0.01
  YS02001898YS02001901        0.34      0.34      0.38      0.01         0.01
  YS02001901YS02001904        0.37      0.37      0.38      0.01         0.01
  YS02001904YS02001907        0.37      0.37      0.59      0.01         0.01
  YS02001907YS02006553        0.71      0.71      0.77      0.01         0.01
  YS02001910YS02001907        0.42      0.42      0.58      0.01         0.01
  YS02001915YS02001910        0.35      0.35      0.42      0.01         0.01
  YS02001918YS02001915        0.27      0.27      0.35      0.01         0.01
  YS02001920YS02001918        0.27      0.27      0.29      0.01         0.01
  YS02001923YS02001920        0.23      0.23      0.29      0.01         0.01
  YS02001926YS02001923        0.01      0.01      0.03      0.01         0.01
  YS02001929YS02001926        0.01      0.01      0.03      0.01         0.01
  YS02006553YS02006556        0.50      0.50      0.59      0.01         0.01
  YS02006556YS02006558        0.55      0.55      0.61      0.01         0.01
  YS02006558YS02006561        0.31      0.49      0.31      0.67         0.31
  YS02006561YS02001783        0.24      0.24      0.40      0.01         0.01
  YS02163301YS02001633        0.62      0.62      0.66      0.01         0.01
  YS02163601YS02164001        0.57      0.57      0.67      0.17         0.01
  YS02164001YS02001641        0.56      0.57      0.56      0.62         0.47
  
  
  ***************
  Pumping Summary
  ***************
  
  ---------------------------------------------------------------------------------------------------------
                                                  Min       Avg       Max     Total     Power    % Time Off
                        Percent   Number of      Flow      Flow      Flow    Volume     Usage    Pump Curve
  Pump                 Utilized   Start-Ups       LPS       LPS       LPS  10^6 ltr     Kw-hr    Low   High
  ---------------------------------------------------------------------------------------------------------
  CC-R1                   19.11          19      0.00    683.00    683.00     3.760     66.51    0.0   45.5
  CC-R2                   12.34          14      0.00    683.00    683.00     2.428     42.00    0.0   69.8
  CC-S1                   30.73          17      0.00    200.00    200.00     1.770     10.79    0.0    0.0
  CC-S2                   26.48          20      0.00    200.00    200.00     1.525      9.53    0.0    0.0
  JK-R1                    5.82          16      0.00   1000.00   1000.00     1.675     16.45    0.0    0.0
  JK-R2                    4.00          12      0.00   1000.00   1000.00     1.151      9.61    0.0    0.0
  JK-S                     6.22          23      0.00    300.00    300.00     0.537      9.16    0.0    0.0
  

  Analysis begun on:  Wed Dec 25 13:04:27 2024
  Analysis ended on:  Wed Dec 25 13:04:28 2024
  Total elapsed time: 00:00:01