
  EPA STORM WATER MANAGEMENT MODEL - VERSION 5.2 (Build 5.2.4)
  PYSWMM TOOLKIT API - VERSION v1.0 (2023-11-27)
  ------------------------------------------------------------

  WARNING 04: minimum elevation drop used for Conduit WS02004404WS02004405
  WARNING 03: negative offset ignored for Link YS02001904YS02001907
  
  ****************
  Analysis Options
  ****************
  Flow Units ............... LPS
  Process Models:
    Rainfall/Runoff ........ YES
    RDII ................... NO
    Snowmelt ............... NO
    Groundwater ............ NO
    Flow Routing ........... YES
    Ponding Allowed ........ NO
    Water Quality .......... NO
  Infiltration Method ...... HORTON
  Flow Routing Method ...... DYNWAVE
  Surcharge Method ......... EXTRAN
  Starting Date ............ 08/28/2015 08:00:00
  Ending Date .............. 08/28/2015 16:00:00
  Antecedent Dry Days ...... 8.0
  Report Time Step ......... 00:01:00
  Wet Time Step ............ 00:01:00
  Dry Time Step ............ 00:01:00
  Routing Time Step ........ 30.00 sec
  Variable Time Step ....... YES
  Maximum Trials ........... 8
  Number of Threads ........ 4
  Head Tolerance ........... 0.001500 m
  
  
  **************************        Volume         Depth
  Runoff Quantity Continuity     hectare-m            mm
  **************************     ---------       -------
  Total Precipitation ......         1.505        45.382
  Evaporation Loss .........         0.000         0.000
  Infiltration Loss ........         0.092         2.788
  Surface Runoff ...........         1.380        41.615
  Final Storage ............         0.033         0.992
  Continuity Error (%) .....        -0.030
  
  
  **************************        Volume        Volume
  Flow Routing Continuity        hectare-m      10^6 ltr
  **************************     ---------     ---------
  Dry Weather Inflow .......         0.025         0.251
  Wet Weather Inflow .......         1.380        13.796
  Groundwater Inflow .......         0.000         0.000
  RDII Inflow ..............         0.000         0.000
  External Inflow ..........         0.083         0.834
  External Outflow .........         1.337        13.371
  Flooding Loss ............         0.222         2.217
  Evaporation Loss .........         0.000         0.000
  Exfiltration Loss ........         0.000         0.000
  Initial Stored Volume ....         0.243         2.431
  Final Stored Volume ......         0.182         1.815
  Continuity Error (%) .....        -0.533
  
  
  *************************
  Highest Continuity Errors
  *************************
  Node YS02001583 (-15.54%)
  Node YS02001884 (4.76%)
  Node WS02006256 (-3.90%)
  Node YS02001774 (1.35%)
  
  
  ***************************
  Time-Step Critical Elements
  ***************************
  Link WS02006252WS02006251 (29.28%)
  Link WS02006238WS02006235 (22.80%)
  Link WS02004404WS02004405 (17.67%)
  Link WS02006235WS02006234 (10.64%)
  Link YS02001791YS02001793 (5.34%)
  
  
  ********************************
  Highest Flow Instability Indexes
  ********************************
  Link WS02006113WS02006111 (36)
  Link WS02006256WS02006235 (20)
  Link WS02006111WS02006112 (19)
  Link WS02006252WS02006251 (15)
  Link WS02006238WS02006235 (14)
  
  
  *********************************
  Most Frequent Nonconverging Nodes
  *********************************
  Node CC-1 (11.33%)
  Node CC-2 (11.33%)
  Node JK-1 (11.33%)
  Node JK-2 (11.33%)
  Node WSC (11.33%)
  
  
  *************************
  Routing Time Step Summary
  *************************
  Minimum Time Step           :     0.01 sec
  Average Time Step           :     2.66 sec
  Maximum Time Step           :     7.04 sec
  % of Time in Steady State   :     0.00
  Average Iterations per Step :     3.10
  % of Steps Not Converging   :    11.33
  Time Step Frequencies       :
     30.000 - 13.228 sec      :     0.00 %
     13.228 -  5.833 sec      :    14.73 %
      5.833 -  2.572 sec      :    29.92 %
      2.572 -  1.134 sec      :    22.93 %
      1.134 -  0.500 sec      :    32.43 %
  
  
  ***************************
  Subcatchment Runoff Summary
  ***************************
  
  ------------------------------------------------------------------------------------------------------------------------------
                            Total      Total      Total      Total     Imperv       Perv      Total       Total     Peak  Runoff
                           Precip      Runon       Evap      Infil     Runoff     Runoff     Runoff      Runoff   Runoff   Coeff
  Subcatchment                 mm         mm         mm         mm         mm         mm         mm    10^6 ltr      LPS
  ------------------------------------------------------------------------------------------------------------------------------
  sub60                     45.38       0.00       0.00       1.72      38.73       3.73      42.46        0.56   363.55   0.936
  sub61                     45.38       0.00       0.00       2.48      36.54       5.24      41.77        0.77   497.94   0.920
  sub62                     45.38       0.00       0.00       1.15      40.47       2.49      42.95        1.18   694.96   0.946
  sub63                     45.38       0.00       0.00       4.53      31.25       8.64      39.89        0.91   531.64   0.879
  sub64                     45.38       0.00       0.00       2.30      37.37       4.51      41.88        1.01   544.40   0.923
  sub65                     45.38       0.00       0.00       1.99      38.23       3.91      42.15        1.16   603.16   0.929
  sub66                     45.38       0.00       0.00       5.51      31.15       7.65      38.80        1.81   744.04   0.855
  sub67                     45.38       0.00       0.00       1.11      40.51       2.52      43.03        0.80   566.97   0.948
  sub68                     45.38       0.00       0.00       2.05      37.84       4.30      42.15        1.16   711.18   0.929
  sub69                     45.38       0.00       0.00       1.78      38.47       5.03      43.50        1.61   821.73   0.958
  sub70                     45.38       0.00       0.00       5.81      29.79       9.62      39.41        1.14   424.01   0.868
  sub71                     45.38       0.00       0.00       1.17      40.43       2.46      42.89        1.12   592.47   0.945
  sub72                     45.38       0.00       0.00       1.04      40.81       2.14      42.95        0.59   278.07   0.946
  
  
  ******************
  Node Depth Summary
  ******************
  
  ---------------------------------------------------------------------------------
                                 Average  Maximum  Maximum  Time of Max    Reported
                                   Depth    Depth      HGL   Occurrence   Max Depth
  Node                 Type       Meters   Meters   Meters  days hr:min      Meters
  ---------------------------------------------------------------------------------
  WS02003060           JUNCTION     0.21     0.38     5.31     0  02:18        0.38
  WS02003066           JUNCTION     0.18     0.30     5.85     0  02:17        0.30
  WS02003067           JUNCTION     0.47     0.70     6.02     0  02:17        0.70
  WS02003069           JUNCTION     0.24     0.43     5.01     0  02:18        0.43
  WS02003072           JUNCTION     0.30     0.50     4.87     0  02:19        0.50
  WS02003073           JUNCTION     0.17     0.30     4.36     0  02:20        0.30
  WS02004401           JUNCTION     0.54     0.85     6.85     0  02:14        0.85
  WS02004402           JUNCTION     0.58     0.88     6.84     0  02:15        0.88
  WS02004403           JUNCTION     0.60     0.89     6.82     0  02:15        0.89
  WS02004404           JUNCTION     0.68     0.96     6.81     0  02:15        0.96
  WS02004405           JUNCTION     0.67     0.96     6.81     0  02:15        0.95
  WS02004406           JUNCTION     0.69     0.96     6.79     0  02:15        0.95
  WS02004407           JUNCTION     0.15     0.30     6.61     0  02:15        0.30
  WS02004409           JUNCTION     0.35     0.66     6.43     0  02:16        0.66
  WS02004410           JUNCTION     0.37     0.68     6.40     0  02:16        0.68
  WS02004411           JUNCTION     0.40     0.69     6.37     0  02:16        0.69
  WS02004412           JUNCTION     0.42     0.70     6.34     0  02:17        0.70
  WS02004413           JUNCTION     0.58     0.86     6.33     0  02:17        0.85
  WS02006109           JUNCTION     0.59     1.11     7.73     0  02:06        0.98
  WS02006110           JUNCTION     0.60     1.11     7.69     0  02:06        0.93
  WS02006111           JUNCTION     0.15     0.29     6.99     0  02:07        0.29
  WS02006112           JUNCTION     0.69     1.06     6.94     0  02:14        1.05
  WS02006113           JUNCTION     0.23     0.46     7.35     0  02:07        0.46
  WS02006115           JUNCTION     0.43     0.75     6.89     0  02:14        0.75
  WS02006116           JUNCTION     0.51     0.83     6.87     0  02:14        0.83
  WS02006228           JUNCTION     0.58     1.11     7.76     0  02:05        1.03
  WS02006229           JUNCTION     0.55     1.15     7.84     0  02:05        1.05
  WS02006230           JUNCTION     0.54     1.30     8.04     0  02:05        1.19
  WS02006231           JUNCTION     0.36     1.02     8.14     0  02:05        0.93
  WS02006232           JUNCTION     0.48     1.35     8.39     0  01:50        1.15
  WS02006234           JUNCTION     0.40     1.58     8.73     0  01:50        1.22
  WS02006235           JUNCTION     0.44     1.41     8.58     0  01:50        1.34
  WS02006238           JUNCTION     0.46     1.43     8.57     0  01:50        1.38
  WS02006239           JUNCTION     0.43     1.38     8.59     0  02:06        1.38
  WS02006240           JUNCTION     0.40     1.46     8.75     0  01:50        1.34
  WS02006242           JUNCTION     0.46     1.53     8.80     0  01:50        1.40
  WS02006243           JUNCTION     0.38     1.27     8.69     0  02:06        1.27
  WS02006245           JUNCTION     0.39     1.21     8.70     0  02:06        1.21
  WS02006247           JUNCTION     0.41     1.20     8.70     0  02:06        1.20
  WS02006248           JUNCTION     0.38     1.10     8.69     0  01:50        1.10
  WS02006249           JUNCTION     0.41     1.09     8.69     0  01:50        1.09
  WS02006251           JUNCTION     0.41     1.34     9.01     0  01:50        1.13
  WS02006252           JUNCTION     0.30     1.50     9.74     0  00:00        0.69
  WS02006256           JUNCTION     0.86     2.35     9.28     0  00:00        2.35
  WSF200               JUNCTION     0.15     0.29     5.52     0  02:17        0.29
  YS02001580           JUNCTION     0.09     1.05     9.59     0  01:37        0.77
  YS02001583           JUNCTION     0.12     1.14     9.64     0  01:37        0.82
  YS02001586           JUNCTION     0.19     1.13     9.30     0  01:36        1.13
  YS02001590           JUNCTION     0.29     1.40     9.26     0  01:36        1.37
  YS02001593           JUNCTION     0.22     1.36     9.22     0  01:37        1.28
  YS02001596           JUNCTION     0.30     1.70     9.12     0  01:37        1.65
  YS02001600           JUNCTION     0.36     1.87     9.00     0  01:36        1.86
  YS02001601           JUNCTION     0.55     2.06     8.90     0  01:36        2.06
  YS02001602           JUNCTION     0.46     1.87     8.77     0  01:37        1.87
  YS02001605           JUNCTION     0.43     1.78     8.68     0  01:37        1.78
  YS02001607           JUNCTION     0.42     1.68     8.53     0  01:37        1.68
  YS02001610           JUNCTION     0.46     1.68     8.48     0  01:37        1.68
  YS02001613           JUNCTION     0.42     1.70     8.54     0  01:37        1.67
  YS02001616           JUNCTION     0.35     1.61     8.52     0  01:37        1.61
  YS02001619           JUNCTION     0.33     1.61     8.54     0  01:37        1.57
  YS02001622           JUNCTION     0.32     1.59     8.49     0  01:37        1.55
  YS02001625           JUNCTION     0.57     1.78     8.38     0  01:37        1.78
  YS02001629           JUNCTION     0.44     1.85     8.40     0  01:37        1.85
  YS02001633           JUNCTION     0.51     2.08     8.53     0  01:39        2.08
  YS02001641           JUNCTION     0.49     1.98     8.42     0  01:40        1.98
  YS02001644           JUNCTION     0.49     1.92     8.35     0  01:39        1.89
  YS02001647           JUNCTION     0.27     1.83     8.44     0  01:41        1.61
  YS02001649           JUNCTION     0.31     1.96     8.35     0  01:41        1.73
  YS02001652           JUNCTION     0.20     2.10     8.70     0  01:41        1.54
  YS02001655           JUNCTION     0.15     2.20     9.05     0  01:41        1.33
  YS02001658           JUNCTION     0.10     2.25     9.39     0  01:41        1.06
  YS02001661           JUNCTION     0.13     0.83     8.23     0  01:41        0.83
  YS02001664           JUNCTION     0.05     0.28     8.20     0  01:40        0.28
  YS02001745           JUNCTION     0.05     0.56     8.08     0  01:41        0.53
  YS02001748           JUNCTION     0.09     1.01     8.09     0  01:41        0.91
  YS02001751           JUNCTION     0.12     2.20     9.08     0  01:40        1.11
  YS02001754           JUNCTION     0.17     2.20     8.81     0  01:40        1.37
  YS02001757           JUNCTION     0.32     2.02     8.28     0  01:40        1.70
  YS02001759           JUNCTION     0.27     1.85     8.22     0  01:40        1.66
  YS02001762           JUNCTION     0.26     1.87     8.27     0  01:40        1.65
  YS02001765           JUNCTION     0.24     1.81     8.26     0  01:40        1.67
  YS02001767           JUNCTION     0.24     1.82     8.31     0  01:40        1.72
  YS02001770           JUNCTION     0.25     1.95     8.44     0  01:39        1.81
  YS02001774           JUNCTION     0.31     2.03     8.45     0  01:40        1.91
  YS02001779           JUNCTION     0.15     1.68     8.37     0  01:39        1.68
  YS02001783           JUNCTION     0.24     1.34     7.48     0  01:38        1.28
  YS02001784           JUNCTION     0.25     1.20     7.27     0  01:38        1.15
  YS02001786           JUNCTION     0.21     0.95     6.98     0  01:38        0.92
  YS02001788           JUNCTION     0.15     0.62     6.59     0  01:39        0.62
  YS02001790           JUNCTION     0.18     0.72     6.36     0  01:44        0.71
  YS02001791           JUNCTION     0.12     0.43     5.90     0  01:46        0.43
  YS02001793           JUNCTION     0.06     0.29     5.12     0  01:40        0.28
  YS02001882           JUNCTION     0.30     1.79     8.50     0  01:38        1.65
  YS02001884           JUNCTION     0.39     1.85     8.47     0  01:38        1.75
  YS02001887           JUNCTION     0.47     1.87     8.41     0  01:38        1.83
  YS02001890           JUNCTION     0.50     1.81     8.32     0  01:38        1.81
  YS02001895           JUNCTION     0.27     1.75     8.50     0  01:38        1.75
  YS02001898           JUNCTION     0.28     1.77     8.51     0  01:38        1.77
  YS02001901           JUNCTION     0.39     1.87     8.48     0  01:38        1.87
  YS02001904           JUNCTION     0.37     1.66     8.29     0  01:38        1.66
  YS02001907           JUNCTION     0.69     1.96     8.25     0  01:38        1.96
  YS02001910           JUNCTION     0.48     2.09     8.59     0  01:38        1.84
  YS02001915           JUNCTION     0.31     2.00     8.72     0  01:38        1.70
  YS02001918           JUNCTION     0.17     1.81     8.88     0  01:38        1.40
  YS02001920           JUNCTION     0.24     2.14     9.14     0  01:39        1.48
  YS02001923           JUNCTION     0.13     2.03     9.29     0  01:39        1.24
  YS02001926           JUNCTION     0.16     1.90     9.35     0  01:39        1.10
  YS02001929           JUNCTION     0.09     1.78     9.47     0  01:39        0.91
  YS02006553           JUNCTION     0.69     2.00     8.28     0  01:39        1.99
  YS02006556           JUNCTION     0.66     2.00     8.31     0  01:39        1.97
  YS02006558           JUNCTION     0.70     2.06     8.32     0  01:38        2.05
  YS02006561           JUNCTION     0.15     1.05     7.71     0  01:38        0.99
  YS02163301           JUNCTION     0.46     1.96     8.48     0  01:39        1.96
  YS02163601           JUNCTION     0.55     2.07     8.47     0  01:40        2.07
  YS02164001           JUNCTION     0.48     2.00     8.46     0  01:40        2.00
  CC-1                 OUTFALL      0.00     0.00     0.00     0  00:00        0.00
  CC-2                 OUTFALL      0.00     0.00     0.00     0  00:00        0.00
  JK-1                 OUTFALL      0.00     0.00     0.00     0  00:00        0.00
  JK-2                 OUTFALL      0.00     0.00     0.00     0  00:00        0.00
  WSC                  OUTFALL      0.17     0.30     0.97     0  02:20        0.30
  CC-storage           STORAGE      0.81     1.40     6.90     0  02:09        1.40
  JK-storage           STORAGE      1.56     4.23     5.03     0  01:39        4.22
  
  
  *******************
  Node Inflow Summary
  *******************
  
  -------------------------------------------------------------------------------------------------
                                  Maximum  Maximum                  Lateral       Total        Flow
                                  Lateral    Total  Time of Max      Inflow      Inflow     Balance
                                   Inflow   Inflow   Occurrence      Volume      Volume       Error
  Node                 Type           LPS      LPS  days hr:min    10^6 ltr    10^6 ltr     Percent
  -------------------------------------------------------------------------------------------------
  WS02003060           JUNCTION     16.53   549.71     0  02:17       0.476        4.27       0.054
  WS02003066           JUNCTION      0.00   532.86     0  02:17           0        3.79       0.037
  WS02003067           JUNCTION      0.00   532.73     0  02:17           0         3.8       0.111
  WS02003069           JUNCTION      0.32   550.03     0  02:18     0.00922        4.27       0.093
  WS02003072           JUNCTION      0.00   549.74     0  02:19           0        4.27       0.163
  WS02003073           JUNCTION      1.82   551.36     0  02:19      0.0524        4.31       0.132
  WS02004401           JUNCTION      0.00   537.64     0  02:14           0         3.9       0.267
  WS02004402           JUNCTION      0.00   537.05     0  02:15           0        3.89       0.271
  WS02004403           JUNCTION      0.00   537.10     0  02:15           0        3.88       0.264
  WS02004404           JUNCTION      0.16   536.41     0  02:15     0.00467        3.87       0.227
  WS02004405           JUNCTION      0.04   536.47     0  02:15      0.0011        3.86       0.321
  WS02004406           JUNCTION      0.00   536.99     0  02:15           0        3.85       0.545
  WS02004407           JUNCTION      0.00   536.15     0  02:15           0        3.83       0.033
  WS02004409           JUNCTION      0.00   535.80     0  02:15           0        3.83       0.074
  WS02004410           JUNCTION      0.00   534.64     0  02:16           0        3.83       0.116
  WS02004411           JUNCTION      0.00   533.73     0  02:16           0        3.82       0.148
  WS02004412           JUNCTION      0.00   533.33     0  02:16           0        3.82       0.197
  WS02004413           JUNCTION      0.00   532.88     0  02:17           0        3.81       0.349
  WS02006109           JUNCTION      1.23   552.58     0  02:06      0.0354        3.95       0.213
  WS02006110           JUNCTION      0.00   551.85     0  02:56           0        3.94       0.175
  WS02006111           JUNCTION      0.00   561.71     0  02:08           0        3.93       0.017
  WS02006112           JUNCTION      0.00   543.07     0  02:07           0        3.93       0.463
  WS02006113           JUNCTION      0.00   568.36     0  01:51           0        3.93       0.060
  WS02006115           JUNCTION      0.00   548.91     0  02:12           0        3.91       0.172
  WS02006116           JUNCTION      0.00   538.58     0  02:12           0         3.9       0.153
  WS02006228           JUNCTION      0.00   552.32     0  02:06           0        3.92       0.106
  WS02006229           JUNCTION      0.00   552.63     0  02:06           0        3.92       0.134
  WS02006230           JUNCTION     10.28   581.76     0  02:05       0.296        3.93       0.173
  WS02006231           JUNCTION      0.00   573.61     0  02:05           0        3.63      -0.047
  WS02006232           JUNCTION      0.00   572.94     0  02:05           0        3.64       0.254
  WS02006234           JUNCTION      0.00   568.49     0  02:05           0        3.62      -0.410
  WS02006235           JUNCTION      0.00   562.11     0  02:05           0        3.76       0.416
  WS02006238           JUNCTION      0.00   422.87     0  02:15           0        3.17      -0.222
  WS02006239           JUNCTION      0.00   422.66     0  02:15           0        3.08      -0.132
  WS02006240           JUNCTION      0.00   418.63     0  02:15           0        3.03      -0.072
  WS02006242           JUNCTION      0.00   418.63     0  03:17           0        3.01      -0.019
  WS02006243           JUNCTION      0.00   418.28     0  02:15           0        2.99      -0.142
  WS02006245           JUNCTION      0.00   418.76     0  02:15           0        3.01       0.513
  WS02006247           JUNCTION      0.00   418.83     0  02:15           0        3.01       0.016
  WS02006248           JUNCTION      0.00   420.64     0  02:15           0        3.01       0.090
  WS02006249           JUNCTION      0.00   459.02     0  00:00           0        3.16       0.507
  WS02006251           JUNCTION      0.08   405.57     0  01:50     0.00222        3.16       0.016
  WS02006252           JUNCTION      0.00   400.00     0  00:00           0        3.15      -0.308
  WS02006256           JUNCTION      0.00   300.00     0  00:00           0       0.877      -3.749
  WSF200               JUNCTION      0.00   532.92     0  02:17           0        3.79       0.012
  YS02001580           JUNCTION      0.00   246.36     0  01:37           0     0.00467      -8.589
  YS02001583           JUNCTION      0.00   262.71     0  01:37           0      0.0147     -13.447
  YS02001586           JUNCTION    424.01   424.25     0  01:43        1.14        1.15       0.156
  YS02001590           JUNCTION      0.00   318.04     0  01:51           0        1.06      -0.059
  YS02001593           JUNCTION      0.00   317.96     0  01:51           0        1.06       0.024
  YS02001596           JUNCTION      0.00   317.89     0  01:54           0        1.06       0.002
  YS02001600           JUNCTION      0.00   318.08     0  01:51           0        1.06       0.004
  YS02001601           JUNCTION    821.73  1139.24     0  01:41        1.61        2.67       0.031
  YS02001602           JUNCTION      0.00   595.61     0  01:37           0        1.93       0.023
  YS02001605           JUNCTION      0.00   595.55     0  01:37           0        1.86       0.016
  YS02001607           JUNCTION      0.00   595.26     0  01:37           0        1.86       0.058
  YS02001610           JUNCTION      0.00   566.01     0  01:37           0        1.86       0.111
  YS02001613           JUNCTION      0.00   534.53     0  01:37           0        1.66       0.064
  YS02001616           JUNCTION      0.00   491.65     0  02:06           0        1.66       0.007
  YS02001619           JUNCTION    744.04   927.12     0  01:37        1.81        3.46      -0.022
  YS02001622           JUNCTION      0.00   863.83     0  01:58           0        3.46      -0.004
  YS02001625           JUNCTION      0.00   863.91     0  01:58           0        3.46       0.251
  YS02001629           JUNCTION      0.00   864.98     0  01:57           0        3.16      -0.002
  YS02001633           JUNCTION    603.36  1349.87     0  01:38        1.17        4.33       0.075
  YS02001641           JUNCTION      0.00  1352.18     0  01:38           0        4.33       0.061
  YS02001644           JUNCTION    544.44  1861.46     0  01:39        1.01        5.33       0.059
  YS02001647           JUNCTION      0.00  1864.82     0  01:39           0        5.32       0.007
  YS02001649           JUNCTION      0.00  2186.00     0  01:39           0        6.23       0.003
  YS02001652           JUNCTION      0.00   626.42     0  01:42           0       0.908      -0.290
  YS02001655           JUNCTION      0.15   774.13     0  01:39     0.00443       0.909       0.113
  YS02001658           JUNCTION      0.00   666.70     0  01:45           0       0.904      -0.006
  YS02001661           JUNCTION      0.00   534.76     0  01:40           0       0.905       0.038
  YS02001664           JUNCTION    531.64   531.64     0  01:40       0.905       0.905      -0.007
  YS02001745           JUNCTION    363.56   363.56     0  01:39       0.558       0.558       0.284
  YS02001748           JUNCTION      0.04   571.80     0  01:40      0.0013        0.56      -0.360
  YS02001751           JUNCTION      0.01   495.07     0  01:43    0.000317       0.567       0.203
  YS02001754           JUNCTION      0.26   449.52     0  01:41     0.00749       0.576      -0.369
  YS02001757           JUNCTION      0.00  3334.71     0  01:42           0        8.76       0.071
  YS02001759           JUNCTION    497.98  1242.96     0  01:40       0.767        1.96      -0.018
  YS02001762           JUNCTION      0.00   743.14     0  01:40           0        1.19       0.016
  YS02001765           JUNCTION      0.00   736.45     0  01:40           0        1.19       0.007
  YS02001767           JUNCTION      0.54   730.58     0  01:40      0.0154        1.19       0.009
  YS02001770           JUNCTION    695.11   725.09     0  01:40        1.18        1.22       0.005
  YS02001774           JUNCTION      0.00   378.38     0  01:39           0      0.0635       1.370
  YS02001779           JUNCTION      0.01   350.15     0  01:39    0.000144      0.0212      -3.492
  YS02001783           JUNCTION      0.00  1152.73     0  01:40           0         3.3       0.005
  YS02001784           JUNCTION      1.06  1154.26     0  01:39      0.0305        3.33       0.014
  YS02001786           JUNCTION      0.06  1154.04     0  01:40     0.00162        3.33       0.017
  YS02001788           JUNCTION      0.07  1156.29     0  01:39     0.00204        3.33       0.010
  YS02001790           JUNCTION      0.15  1162.74     0  01:39     0.00446        3.33       0.023
  YS02001791           JUNCTION      0.00  1273.64     0  01:45           0        3.33      -0.015
  YS02001793           JUNCTION      0.00  1231.50     0  01:47           0        3.33       0.010
  YS02001882           JUNCTION      0.00    66.78     0  01:37           0      0.0124       3.231
  YS02001884           JUNCTION      0.00   129.54     0  01:37           0       0.048       5.001
  YS02001887           JUNCTION    567.42   583.21     0  01:38       0.812       0.846       0.504
  YS02001890           JUNCTION      0.00   591.76     0  01:38           0       0.806       0.600
  YS02001895           JUNCTION      0.00   598.71     0  01:38           0       0.796       0.170
  YS02001898           JUNCTION      0.00   604.19     0  01:38           0       0.795      -0.074
  YS02001901           JUNCTION      0.00   610.56     0  01:38           0       0.798       0.376
  YS02001904           JUNCTION      0.00   612.32     0  01:38           0       0.812       0.305
  YS02001907           JUNCTION      0.00  1559.20     0  01:40           0        2.61       0.688
  YS02001910           JUNCTION      0.00  1036.20     0  01:40           0         1.8       0.383
  YS02001915           JUNCTION    592.49  1036.00     0  01:40        1.12        1.86       0.045
  YS02001918           JUNCTION      0.00   723.34     0  01:38           0       0.769      -0.008
  YS02001920           JUNCTION      2.87   635.33     0  01:38      0.0827       0.738       0.056
  YS02001923           JUNCTION      0.04   784.09     0  01:38     0.00109       0.636      -0.151
  YS02001926           JUNCTION      0.05  1110.27     0  01:39      0.0015       0.614      -0.232
  YS02001929           JUNCTION    278.07   869.85     0  01:39        0.59       0.597      -0.064
  YS02006553           JUNCTION      0.00   792.85     0  01:54           0        2.17       0.527
  YS02006556           JUNCTION      0.00   793.36     0  01:54           0        2.18       0.373
  YS02006558           JUNCTION    712.06  1176.54     0  01:38        1.18        3.33       0.100
  YS02006561           JUNCTION      0.00  1174.82     0  01:38           0         3.3      -0.002
  YS02163301           JUNCTION      0.00   866.16     0  01:57           0        3.17       0.037
  YS02163601           JUNCTION      0.11  1348.29     0  01:38     0.00317        4.33       0.110
  YS02164001           JUNCTION      0.00  1348.62     0  01:38           0        4.33       0.049
  CC-1                 OUTFALL       0.00   683.00     0  00:00           0        3.98       0.000
  CC-2                 OUTFALL       0.00   683.00     0  00:00           0        2.49       0.000
  JK-1                 OUTFALL       0.00  1000.00     0  00:00           0        1.83       0.000
  JK-2                 OUTFALL       0.00  1000.00     0  00:00           0       0.761       0.000
  WSC                  OUTFALL       0.00   550.94     0  02:20           0        4.31       0.000
  CC-storage           STORAGE       0.00  3335.22     0  01:42           0          11      -0.289
  JK-storage           STORAGE       0.00  1268.45     0  01:50           0        3.48      -0.498
  
  
  **********************
  Node Surcharge Summary
  **********************
  
  Surcharging occurs when water rises above the top of the highest conduit.
  ---------------------------------------------------------------------
                                               Max. Height   Min. Depth
                                   Hours       Above Crown    Below Rim
  Node                 Type      Surcharged         Meters       Meters
  ---------------------------------------------------------------------
  WS02006109           JUNCTION        1.60          0.288        1.532
  WS02006110           JUNCTION        0.42          0.199        1.651
  WS02006112           JUNCTION        0.38          0.062        1.618
  WS02006228           JUNCTION        1.60          0.282        1.918
  WS02006229           JUNCTION        1.60          0.346        2.104
  WS02006230           JUNCTION        0.44          0.216        1.354
  WS02006231           JUNCTION        0.51          0.306        1.224
  WS02006232           JUNCTION        1.62          0.647        0.833
  WS02006234           JUNCTION        0.76          0.858        0.382
  WS02006235           JUNCTION        1.58          0.703        0.587
  WS02006238           JUNCTION        1.60          0.708        0.722
  WS02006239           JUNCTION        1.58          0.638        0.652
  WS02006240           JUNCTION        1.59          0.748        0.642
  WS02006242           JUNCTION        1.64          0.804        0.016
  WS02006243           JUNCTION        1.59          0.560        0.210
  WS02006245           JUNCTION        1.59          0.505        0.345
  WS02006247           JUNCTION        1.60          0.489        0.271
  WS02006248           JUNCTION        1.58          0.380        0.000
  WS02006249           JUNCTION        1.59          0.390        0.000
  WS02006251           JUNCTION        0.54          0.306        0.874
  WS02006252           JUNCTION        1.92          1.100        0.000
  WS02006256           JUNCTION        6.60          2.050        0.000
  YS02001580           JUNCTION        0.41          0.450        0.000
  YS02001583           JUNCTION        0.42          0.500        0.000
  YS02001586           JUNCTION        0.56          0.510        0.000
  YS02001590           JUNCTION        0.63          0.750        0.000
  YS02001593           JUNCTION        0.62          0.735        0.105
  YS02001596           JUNCTION        0.71          0.972        0.098
  YS02001600           JUNCTION        0.83          1.190        0.000
  YS02001601           JUNCTION        1.19          1.440        0.000
  YS02001602           JUNCTION        1.06          1.270        0.000
  YS02001605           JUNCTION        1.01          1.180        0.000
  YS02001607           JUNCTION        0.57          0.680        0.000
  YS02001610           JUNCTION        0.60          0.680        0.000
  YS02001613           JUNCTION        0.56          0.700        0.000
  YS02001616           JUNCTION        0.53          0.610        0.000
  YS02001619           JUNCTION        0.51          0.610        0.000
  YS02001622           JUNCTION        0.51          0.587        0.033
  YS02001625           JUNCTION        0.67          0.780        0.000
  YS02001629           JUNCTION        0.45          0.470        0.000
  YS02001633           JUNCTION        0.68          1.060        0.000
  YS02001641           JUNCTION        0.62          0.978        0.122
  YS02001644           JUNCTION        0.59          0.920        0.000
  YS02001647           JUNCTION        0.38          0.826        0.074
  YS02001649           JUNCTION        0.48          0.963        0.087
  YS02001652           JUNCTION        0.28          1.070        0.060
  YS02001655           JUNCTION        0.11          1.200        0.000
  YS02001658           JUNCTION        0.02          1.251        0.049
  YS02001751           JUNCTION        0.04          1.200        0.000
  YS02001754           JUNCTION        0.13          1.150        0.000
  YS02001757           JUNCTION        0.54          1.021        0.189
  YS02001759           JUNCTION        0.41          0.851        0.359
  YS02001762           JUNCTION        0.38          0.875        0.275
  YS02001765           JUNCTION        0.34          0.814        0.286
  YS02001767           JUNCTION        0.30          0.819        0.211
  YS02001770           JUNCTION        0.27          0.920        0.000
  YS02001774           JUNCTION        0.37          1.029        0.021
  YS02001779           JUNCTION        0.17          0.680        0.000
  YS02001783           JUNCTION        0.42          0.537        1.063
  YS02001784           JUNCTION        0.40          0.399        1.091
  YS02001786           JUNCTION        0.31          0.153        1.277
  YS02001882           JUNCTION        0.37          0.788        0.042
  YS02001884           JUNCTION        0.38          0.792        0.078
  YS02001887           JUNCTION        0.41          0.820        0.130
  YS02001890           JUNCTION        0.42          0.760        0.000
  YS02001895           JUNCTION        0.36          0.750        0.000
  YS02001898           JUNCTION        0.36          0.740        0.000
  YS02001901           JUNCTION        0.40          0.870        0.000
  YS02001904           JUNCTION        0.39          0.661        0.189
  YS02001907           JUNCTION        0.58          0.950        0.000
  YS02001910           JUNCTION        0.44          1.086        0.014
  YS02001915           JUNCTION        0.37          1.000        0.000
  YS02001918           JUNCTION        0.29          0.810        0.000
  YS02001920           JUNCTION        0.30          1.136        0.004
  YS02001923           JUNCTION        0.01          0.820        0.000
  YS02001926           JUNCTION        0.01          0.900        0.000
  YS02001929           JUNCTION        0.01          0.780        0.000
  YS02006553           JUNCTION        0.59          1.000        0.190
  YS02006556           JUNCTION        0.51          0.963        0.387
  YS02006558           JUNCTION        0.50          0.957        0.443
  YS02006561           JUNCTION        0.25          0.250        0.900
  YS02163301           JUNCTION        0.67          0.959        0.071
  YS02163601           JUNCTION        0.71          1.074        0.006
  YS02164001           JUNCTION        0.63          1.002        0.098
  
  
  *********************
  Node Flooding Summary
  *********************
  
  Flooding refers to all water that overflows a node, whether it ponds or not.
  --------------------------------------------------------------------------
                                                             Total   Maximum
                                 Maximum   Time of Max       Flood    Ponded
                        Hours       Rate    Occurrence      Volume     Depth
  Node                 Flooded       LPS   days hr:min    10^6 ltr    Meters
  --------------------------------------------------------------------------
  WS02006248              0.01     18.74      0  01:50       0.000     0.000
  WS02006249              0.53     83.17      0  02:06       0.127     0.000
  WS02006252              0.01    245.63      0  00:00       0.000     0.000
  WS02006256              0.81    293.19      0  00:00       0.273     0.000
  YS02001580              0.01    244.02      0  01:37       0.001     0.000
  YS02001583              0.01    184.21      0  01:37       0.001     0.000
  YS02001586              0.30    177.58      0  01:37       0.075     0.000
  YS02001590              0.01    162.24      0  01:36       0.000     0.000
  YS02001600              0.01      6.23      0  01:37       0.000     0.000
  YS02001601              0.49    741.39      0  01:41       0.741     0.000
  YS02001602              0.35     62.02      0  01:51       0.070     0.000
  YS02001605              0.01     12.88      0  01:37       0.000     0.000
  YS02001607              0.01    243.10      0  01:37       0.001     0.000
  YS02001610              0.30    256.98      0  01:44       0.200     0.000
  YS02001613              0.01     85.93      0  01:37       0.000     0.000
  YS02001616              0.01    105.36      0  01:37       0.001     0.000
  YS02001619              0.01     94.24      0  01:37       0.000     0.000
  YS02001625              0.25    702.80      0  01:42       0.291     0.000
  YS02001629              0.02    121.71      0  01:37       0.001     0.000
  YS02001633              0.01      0.84      0  01:39       0.000     0.000
  YS02001644              0.01     31.95      0  01:41       0.000     0.000
  YS02001655              0.01     24.64      0  01:41       0.000     0.000
  YS02001751              0.01    338.47      0  01:40       0.000     0.000
  YS02001754              0.01     68.74      0  01:40       0.000     0.000
  YS02001770              0.01     47.44      0  01:39       0.000     0.000
  YS02001779              0.01    328.98      0  01:39       0.004     0.000
  YS02001890              0.04    209.05      0  01:38       0.005     0.000
  YS02001895              0.01     71.54      0  01:38       0.000     0.000
  YS02001898              0.01     91.67      0  01:38       0.000     0.000
  YS02001901              0.01     60.66      0  01:38       0.000     0.000
  YS02001907              0.23   1114.62      0  01:40       0.419     0.000
  YS02001915              0.01      7.86      0  01:38       0.000     0.000
  YS02001918              0.01    222.00      0  01:38       0.003     0.000
  YS02001923              0.01    251.10      0  01:39       0.001     0.000
  YS02001926              0.01    447.74      0  01:39       0.003     0.000
  YS02001929              0.01    470.90      0  01:39       0.001     0.000
  
  
  **********************
  Storage Volume Summary
  **********************
  
  ------------------------------------------------------------------------------------------------
                         Average    Avg   Evap  Exfil     Maximum    Max    Time of Max    Maximum
                          Volume   Pcnt   Pcnt   Pcnt      Volume   Pcnt     Occurrence    Outflow
  Storage Unit           1000 m³   Full   Loss   Loss     1000 m³   Full    days hr:min        LPS
  ------------------------------------------------------------------------------------------------
  CC-storage               2.245   35.0    0.0    0.0       3.903   60.9       0  02:09    1783.53
  JK-storage               0.078   26.9    0.0    0.0       0.213   72.9       0  01:39    2300.00
  
  
  ***********************
  Outfall Loading Summary
  ***********************
  
  -----------------------------------------------------------
                         Flow       Avg       Max       Total
                         Freq      Flow      Flow      Volume
  Outfall Node           Pcnt       LPS       LPS    10^6 ltr
  -----------------------------------------------------------
  CC-1                  35.67    683.00    683.00       3.982
  CC-2                  23.66    683.00    683.00       2.493
  JK-1                  11.01   1000.00   1000.00       1.827
  JK-2                   5.63   1000.00   1000.00       0.761
  WSC                   99.94    222.10    550.94       4.308
  -----------------------------------------------------------
  System                35.18   3588.10   3809.58      13.371
  
  
  ********************
  Link Flow Summary
  ********************
  
  -----------------------------------------------------------------------------
                                 Maximum  Time of Max   Maximum    Max/    Max/
                                  |Flow|   Occurrence   |Veloc|    Full    Full
  Link                 Type          LPS  days hr:min     m/sec    Flow   Depth
  -----------------------------------------------------------------------------
  1                    CONDUIT    550.94     0  02:20      2.82    0.19    0.30
  WS02003060WS02003069 CONDUIT    549.71     0  02:18      1.64    0.22    0.34
  WS02003066WSF200     CONDUIT    532.92     0  02:17      2.85    0.09    0.22
  WS02003067WS02003066 CONDUIT    532.86     0  02:17      1.20    0.17    0.41
  WS02003069WS02003072 CONDUIT    549.74     0  02:19      1.37    0.26    0.39
  WS02003072WS02003073 CONDUIT    549.54     0  02:19      1.43    1.19    0.37
  WS02004401WS02004402 CONDUIT    537.05     0  02:15      0.98    0.64    0.86
  WS02004402WS02004403 CONDUIT    537.10     0  02:15      0.97    0.77    0.88
  WS02004403WS02004404 CONDUIT    536.25     0  02:15      0.92    0.39    0.93
  WS02004404WS02004405 CONDUIT    536.44     0  02:15      1.08    5.26    0.96
  WS02004405WS02004406 CONDUIT    536.99     0  02:15      0.99    1.06    0.96
  WS02004406WS02004407 CONDUIT    536.15     0  02:15      1.04    0.24    0.63
  WS02004407WS02004409 CONDUIT    535.80     0  02:15      1.54    0.19    0.48
  WS02004409WS02004410 CONDUIT    534.64     0  02:16      1.01    0.69    0.67
  WS02004410WS02004411 CONDUIT    533.73     0  02:16      0.95    0.73    0.68
  WS02004411WS02004412 CONDUIT    533.33     0  02:16      0.92    0.76    0.69
  WS02004412WS02004413 CONDUIT    532.88     0  02:17      0.82    0.36    0.78
  WS02004413WS02003067 CONDUIT    532.73     0  02:17      1.11    0.23    0.59
  WS02006109WS02006110 CONDUIT    551.85     0  02:56      1.10    1.06    1.00
  WS02006110WS02006113 CONDUIT    568.36     0  01:51      1.38    0.52    0.78
  WS02006111WS02006112 CONDUIT    543.07     0  02:07      1.81    0.26    0.67
  WS02006112WS02006115 CONDUIT    548.91     0  02:12      0.83    0.32    0.87
  WS02006113WS02006111 CONDUIT    561.71     0  02:08      2.47    0.67    0.46
  WS02006115WS02006116 CONDUIT    538.58     0  02:12      0.98    0.69    0.76
  WS02006116WS02004401 CONDUIT    537.64     0  02:14      0.98    0.74    0.84
  WS02006228WS02006109 CONDUIT    551.35     0  02:06      1.10    2.41    1.00
  WS02006229WS02006228 CONDUIT    552.32     0  02:06      1.14    1.83    1.00
  WS02006230WS02006229 CONDUIT    552.63     0  02:06      1.44   12.30    1.00
  WS02006231WS02006230 CONDUIT    571.48     0  02:05      1.55    8.67    1.00
  WS02006232WS02006231 CONDUIT    573.61     0  02:05      1.50    1.20    1.00
  WS02006234WS02006232 CONDUIT    572.94     0  02:05      1.49    1.16    1.00
  WS02006235WS02006234 CONDUIT    568.49     0  02:05      1.48    6.00    1.00
  WS02006238WS02006235 CONDUIT    425.67     0  02:00      1.45    0.95    1.00
  WS02006239WS02006238 CONDUIT    422.87     0  02:15      1.10    1.35    1.00
  WS02006240WS02006239 CONDUIT    422.66     0  02:15      1.24    1.33    1.00
  WS02006242WS02006240 CONDUIT    418.63     0  02:15      1.13    1.66    1.00
  WS02006243WS02006242 CONDUIT    418.63     0  03:17      1.40    0.89    1.00
  WS02006245WS02006243 CONDUIT    418.28     0  02:15      1.45    1.24    1.00
  WS02006247WS02006245 CONDUIT    418.76     0  02:15      1.43    3.32    1.00
  WS02006248WS02006247 CONDUIT    418.83     0  02:15      1.44    0.91    1.00
  WS02006249WS02006248 CONDUIT    420.64     0  02:15      1.36    2.30    1.00
  WS02006251WS02006249 CONDUIT    459.02     0  00:00      1.99    1.32    1.00
  WS02006252WS02006251 CONDUIT    405.49     0  01:50     26.38    1.49    1.00
  WS02006256WS02006235 CONDUIT    288.91     0  00:00      4.23    3.06    1.00
  WSF200WS02003060     CONDUIT    533.18     0  02:17      2.06    0.12    0.28
  YS02001580YS02001583 CONDUIT    246.36     0  01:37      1.08    0.95    1.00
  YS02001583YS02001586 CONDUIT    262.71     0  01:37      1.17    0.40    1.00
  YS02001586YS02001590 CONDUIT    318.04     0  01:51      1.34    0.56    1.00
  YS02001590YS02001593 CONDUIT    317.96     0  01:51      1.12    2.00    1.00
  YS02001593YS02001596 CONDUIT    317.89     0  01:54      1.73    0.50    1.00
  YS02001596YS02001600 CONDUIT    318.08     0  01:51      1.19    0.62    1.00
  YS02001600YS02001601 CONDUIT    317.92     0  01:51      1.12    0.55    1.00
  YS02001601YS02001602 CONDUIT    595.61     0  01:37      2.11    2.15    1.00
  YS02001602YS02001605 CONDUIT    595.55     0  01:37      2.11   12.60    1.00
  YS02001605YS02001607 CONDUIT    595.26     0  01:37      2.11    3.26    1.00
  YS02001607YS02001610 CONDUIT    566.01     0  01:37      0.78    0.54    1.00
  YS02001610YS02001613 CONDUIT    534.53     0  01:37      0.72    0.62    1.00
  YS02001613YS02001616 CONDUIT    491.65     0  02:06      0.70    0.42    1.00
  YS02001616YS02001619 CONDUIT    492.85     0  02:06      0.66    0.86    1.00
  YS02001619YS02001622 CONDUIT    863.83     0  01:58      1.43    1.27    1.00
  YS02001622YS02001625 CONDUIT    863.91     0  01:58      1.10    0.46    1.00
  YS02001625YS02001629 CONDUIT    864.98     0  01:57      1.10    0.41    1.00
  YS02001629YS02163301 CONDUIT    866.16     0  01:57      1.10    1.07    1.00
  YS02001633YS02163601 CONDUIT   1348.18     0  01:38      1.72    1.42    1.00
  YS02001641YS02001644 CONDUIT   1353.61     0  01:38      1.72    4.38    1.00
  YS02001644YS02001647 CONDUIT   1864.82     0  01:39      2.37    1.10    1.00
  YS02001647YS02001649 CONDUIT   1871.44     0  01:39      2.38    0.99    1.00
  YS02001649YS02001757 CONDUIT   2185.03     0  01:39      2.78    1.33    1.00
  YS02001652YS02001649 CONDUIT    626.33     0  01:42      0.97    0.31    1.00
  YS02001655YS02001652 CONDUIT    626.42     0  01:42      1.77    0.30    1.00
  YS02001658YS02001655 CONDUIT    773.97     0  01:39      2.14    0.33    1.00
  YS02001661YS02001658 CONDUIT    666.70     0  01:45      2.45    0.26    0.88
  YS02001664YS02001661 CONDUIT    534.76     0  01:40      2.37    0.17    0.55
  YS02001745YS02001748 CONDUIT    564.86     0  01:42      2.33    0.22    0.67
  YS02001748YS02001751 CONDUIT    495.06     0  01:43      1.94    0.25    1.00
  YS02001751YS02001754 CONDUIT    449.26     0  01:41      1.80    0.22    1.00
  YS02001754YS02001757 CONDUIT    449.30     0  01:41      0.75    0.18    1.00
  YS02001757CaochengTiaoxuchi CONDUIT   3335.22     0  01:42      4.57    1.44    1.00
  YS02001759YS02001757 CONDUIT   1246.92     0  01:40      1.59    0.89    1.00
  YS02001762YS02001759 CONDUIT    749.13     0  01:40      0.95    0.86    1.00
  YS02001765YS02001762 CONDUIT    743.14     0  01:40      0.95    0.70    1.00
  YS02001767YS02001765 CONDUIT    736.45     0  01:40      0.94    0.93    1.00
  YS02001770YS02001767 CONDUIT    730.05     0  01:40      1.02    2.89    1.00
  YS02001774YS02001770 CONDUIT    378.38     0  01:39      0.48    0.24    1.00
  YS02001779YS02001774 CONDUIT    350.14     0  01:39      0.45    0.18    1.00
  YS02001783YS02001784 CONDUIT   1153.20     0  01:39      2.29    1.59    1.00
  YS02001784YS02001785 CONDUIT   1153.99     0  01:40      2.30    2.69    1.00
  YS02001786YS02001788 CONDUIT   1156.22     0  01:39      2.48    2.23    0.89
  YS02001788YS02001790 CONDUIT   1162.59     0  01:39      2.70    0.86    0.83
  YS02001790YS02001791 CONDUIT   1273.64     0  01:45      3.42    1.39    0.70
  YS02001791YS02001793 CONDUIT   1231.50     0  01:47      6.70    0.53    0.44
  YS02001793JiankangQianchi CONDUIT   1268.45     0  01:50      2.54    0.10    0.64
  YS02001882YS02001884 CONDUIT     66.78     0  01:37      0.14    0.08    1.00
  YS02001884YS02001887 CONDUIT    129.54     0  01:37      0.17    0.17    1.00
  YS02001887YS02001890 CONDUIT    591.76     0  01:38      0.75    1.01    1.00
  YS02001890YS02001895 CONDUIT    598.71     0  01:38      0.76    0.28    1.00
  YS02001895YS02001898 CONDUIT    604.19     0  01:38      0.77    1.05    1.00
  YS02001898YS02001901 CONDUIT    610.56     0  01:38      0.78    0.39    1.00
  YS02001901YS02001904 CONDUIT    612.32     0  01:38      0.78    0.95    1.00
  YS02001904YS02001907 CONDUIT    613.53     0  01:38      0.78    0.21    1.00
  YS02001907YS02006553 CONDUIT    792.85     0  01:54      0.88    0.93    1.00
  YS02001910YS02001907 CONDUIT   1036.12     0  01:40      1.32    0.58    1.00
  YS02001915YS02001910 CONDUIT   1036.20     0  01:40      1.32    0.51    1.00
  YS02001918YS02001915 CONDUIT    723.34     0  01:38      0.95    0.40    1.00
  YS02001920YS02001918 CONDUIT    632.46     0  01:38      0.81    0.61    1.00
  YS02001923YS02001920 CONDUIT    637.81     0  01:38      0.89    0.29    1.00
  YS02001926YS02001923 CONDUIT    868.43     0  01:39      1.34    1.24    1.00
  YS02001929YS02001926 CONDUIT    616.85     0  01:39      1.20    0.29    1.00
  YS02006553YS02006556 CONDUIT    793.36     0  01:54      1.01    0.68    1.00
  YS02006556YS02006558 CONDUIT    794.74     0  01:54      1.01    0.63    1.00
  YS02006558YS02006561 CONDUIT   1174.82     0  01:38      4.16    2.60    1.00
  YS02006561YS02001783 CONDUIT   1152.73     0  01:40      2.29    0.60    1.00
  YS02163301YS02001633 CONDUIT    866.63     0  01:57      1.10    0.81    1.00
  YS02163601YS02164001 CONDUIT   1348.62     0  01:38      1.72    1.19    1.00
  YS02164001YS02001641 CONDUIT   1352.18     0  01:38      1.72    1.85    1.00
  CC-R1                PUMP       683.00     0  00:00              1.00
  CC-R2                PUMP       683.00     0  00:00              1.00
  CC-S1                PUMP       200.00     0  00:00              1.00
  CC-S2                PUMP       200.00     0  00:00              1.00
  JK-R1                PUMP      1000.00     0  00:00              1.00
  JK-R2                PUMP      1000.00     0  00:00              1.00
  JK-S                 PUMP       300.00     0  00:00              1.00
  
  
  ***************************
  Flow Classification Summary
  ***************************
  
  -------------------------------------------------------------------------------------
                      Adjusted    ---------- Fraction of Time in Flow Class ---------- 
                       /Actual         Up    Down  Sub   Sup   Up    Down  Norm  Inlet 
  Conduit               Length    Dry  Dry   Dry   Crit  Crit  Crit  Crit  Ltd   Ctrl  
  -------------------------------------------------------------------------------------
  1                       1.00   0.00  0.00  0.00  0.00  1.00  0.00  0.00  0.41  0.00
  WS02003060WS02003069    1.00   0.00  0.00  0.00  0.98  0.02  0.00  0.00  0.75  0.00
  WS02003066WSF200        1.00   0.13  0.00  0.00  0.00  0.87  0.00  0.00  0.80  0.00
  WS02003067WS02003066    1.00   0.10  0.02  0.00  0.88  0.00  0.00  0.00  0.00  0.00
  WS02003069WS02003072    1.00   0.00  0.00  0.00  0.99  0.01  0.00  0.00  0.78  0.00
  WS02003072WS02003073    1.00   0.00  0.00  0.00  0.00  0.00  0.00  1.00  0.00  0.00
  WS02004401WS02004402    1.00   0.02  0.00  0.00  0.98  0.00  0.00  0.00  0.00  0.00
  WS02004402WS02004403    1.00   0.02  0.00  0.00  0.97  0.00  0.00  0.00  0.00  0.00
  WS02004403WS02004404    1.00   0.00  0.03  0.00  0.97  0.00  0.00  0.00  0.00  0.00
  WS02004404WS02004405    1.00   0.00  0.00  0.00  1.00  0.00  0.00  0.00  0.01  0.00
  WS02004405WS02004406    1.00   0.00  0.00  0.00  1.00  0.00  0.00  0.00  0.00  0.00
  WS02004406WS02004407    1.00   0.00  0.05  0.00  0.95  0.00  0.00  0.00  0.00  0.00
  WS02004407WS02004409    1.00   0.05  0.00  0.00  0.94  0.01  0.00  0.00  0.94  0.00
  WS02004409WS02004410    1.00   0.05  0.00  0.00  0.95  0.00  0.00  0.00  0.03  0.00
  WS02004410WS02004411    1.00   0.05  0.00  0.00  0.95  0.00  0.00  0.00  0.01  0.00
  WS02004411WS02004412    1.00   0.05  0.00  0.00  0.95  0.00  0.00  0.00  0.00  0.00
  WS02004412WS02004413    1.00   0.05  0.00  0.00  0.94  0.00  0.00  0.00  0.01  0.00
  WS02004413WS02003067    1.00   0.06  0.04  0.00  0.00  0.00  0.90  0.00  0.00  0.00
  WS02006109WS02006110    1.00   0.00  0.01  0.00  0.98  0.00  0.01  0.00  0.00  0.00
  WS02006110WS02006113    1.00   0.01  0.01  0.00  0.98  0.00  0.00  0.00  0.00  0.00
  WS02006111WS02006112    1.00   0.02  0.00  0.00  0.98  0.00  0.00  0.00  0.98  0.00
  WS02006112WS02006115    1.00   0.02  0.00  0.00  0.97  0.00  0.00  0.00  0.00  0.00
  WS02006113WS02006111    1.00   0.02  0.00  0.00  0.00  0.98  0.00  0.00  0.12  0.00
  WS02006115WS02006116    1.00   0.02  0.00  0.00  0.97  0.00  0.00  0.01  0.00  0.00
  WS02006116WS02004401    1.00   0.02  0.00  0.00  0.98  0.00  0.00  0.00  0.00  0.00
  WS02006228WS02006109    1.00   0.00  0.00  0.00  1.00  0.00  0.00  0.00  0.00  0.00
  WS02006229WS02006228    1.00   0.00  0.00  0.00  0.99  0.00  0.00  0.01  0.00  0.00
  WS02006230WS02006229    1.00   0.00  0.00  0.00  0.99  0.00  0.00  0.01  0.03  0.00
  WS02006231WS02006230    1.00   0.00  0.00  0.00  0.21  0.00  0.79  0.00  0.00  0.00
  WS02006232WS02006231    1.00   0.00  0.00  0.00  0.99  0.00  0.01  0.00  0.00  0.00
  WS02006234WS02006232    1.00   0.00  0.00  0.00  1.00  0.00  0.00  0.00  0.06  0.00
  WS02006235WS02006234    1.00   0.00  0.00  0.00  0.91  0.00  0.09  0.00  0.00  0.00
  WS02006238WS02006235    1.00   0.00  0.00  0.00  1.00  0.00  0.00  0.00  0.01  0.00
  WS02006239WS02006238    1.00   0.00  0.00  0.00  1.00  0.00  0.00  0.00  0.16  0.00
  WS02006240WS02006239    1.00   0.00  0.00  0.00  0.67  0.00  0.00  0.33  0.06  0.00
  WS02006242WS02006240    1.00   0.00  0.00  0.00  0.99  0.00  0.01  0.00  0.00  0.00
  WS02006243WS02006242    1.00   0.00  0.00  0.00  0.99  0.00  0.00  0.01  0.63  0.00
  WS02006245WS02006243    1.00   0.00  0.00  0.00  0.75  0.00  0.00  0.25  0.01  0.00
  WS02006247WS02006245    1.00   0.00  0.00  0.00  0.96  0.00  0.00  0.04  0.00  0.00
  WS02006248WS02006247    1.00   0.00  0.00  0.00  0.98  0.00  0.00  0.02  0.50  0.00
  WS02006249WS02006248    1.00   0.00  0.00  0.00  0.37  0.00  0.62  0.00  0.00  0.00
  WS02006251WS02006249    1.00   0.00  0.00  0.00  0.99  0.01  0.00  0.00  0.63  0.00
  WS02006252WS02006251    1.00   0.00  0.41  0.00  0.07  0.00  0.52  0.00  0.00  0.00
  WS02006256WS02006235    1.00   0.00  0.00  0.00  0.98  0.02  0.00  0.00  0.01  0.00
  WSF200WS02003060        1.00   0.00  0.13  0.00  0.43  0.44  0.00  0.00  0.61  0.00
  YS02001580YS02001583    1.00   0.20  0.63  0.00  0.17  0.00  0.00  0.00  0.72  0.00
  YS02001583YS02001586    1.00   0.45  0.33  0.00  0.23  0.00  0.00  0.00  0.72  0.00
  YS02001586YS02001590    1.00   0.13  0.00  0.00  0.38  0.05  0.00  0.45  0.34  0.00
  YS02001590YS02001593    1.00   0.13  0.01  0.00  0.09  0.00  0.77  0.00  0.00  0.00
  YS02001593YS02001596    1.00   0.14  0.00  0.00  0.10  0.01  0.00  0.75  0.02  0.00
  YS02001596YS02001600    1.00   0.14  0.00  0.00  0.17  0.02  0.00  0.67  0.06  0.00
  YS02001600YS02001601    1.00   0.13  0.01  0.00  0.86  0.00  0.00  0.00  0.63  0.00
  YS02001601YS02001602    1.00   0.13  0.01  0.00  0.86  0.00  0.00  0.00  0.00  0.00
  YS02001602YS02001605    1.00   0.14  0.00  0.00  0.86  0.00  0.00  0.00  0.00  0.00
  YS02001605YS02001607    1.00   0.14  0.00  0.00  0.86  0.00  0.00  0.00  0.00  0.00
  YS02001607YS02001610    1.00   0.13  0.01  0.00  0.86  0.00  0.00  0.00  0.02  0.00
  YS02001610YS02001613    1.00   0.13  0.00  0.00  0.87  0.00  0.00  0.00  0.01  0.00
  YS02001613YS02001616    1.00   0.13  0.00  0.00  0.87  0.00  0.00  0.00  0.01  0.00
  YS02001616YS02001619    1.00   0.13  0.00  0.00  0.87  0.00  0.00  0.00  0.00  0.00
  YS02001619YS02001622    1.00   0.13  0.00  0.00  0.87  0.00  0.00  0.00  0.31  0.00
  YS02001622YS02001625    1.00   0.13  0.00  0.00  0.87  0.00  0.00  0.00  0.05  0.00
  YS02001625YS02001629    1.00   0.13  0.05  0.00  0.13  0.00  0.69  0.00  0.00  0.00
  YS02001629YS02163301    1.00   0.16  0.01  0.00  0.83  0.00  0.00  0.00  0.00  0.00
  YS02001633YS02163601    1.00   0.00  0.01  0.00  0.99  0.00  0.00  0.00  0.15  0.00
  YS02001641YS02001644    1.00   0.00  0.01  0.00  0.99  0.00  0.00  0.00  0.00  0.00
  YS02001644YS02001647    1.00   0.00  0.18  0.00  0.82  0.00  0.00  0.00  0.00  0.00
  YS02001647YS02001649    1.00   0.00  0.18  0.00  0.53  0.30  0.00  0.00  0.58  0.00
  YS02001649YS02001757    1.00   0.00  0.00  0.00  0.76  0.24  0.00  0.00  0.43  0.00
  YS02001652YS02001649    1.00   0.00  0.00  0.00  0.96  0.04  0.00  0.00  0.75  0.00
  YS02001655YS02001652    1.00   0.00  0.00  0.00  0.15  0.02  0.00  0.83  0.07  0.00
  YS02001658YS02001655    1.00   0.00  0.15  0.00  0.63  0.22  0.00  0.00  0.74  0.00
  YS02001661YS02001658    1.00   0.15  0.00  0.00  0.47  0.39  0.00  0.00  0.77  0.00
  YS02001664YS02001661    1.00   0.13  0.00  0.00  0.76  0.11  0.00  0.00  0.86  0.00
  YS02001745YS02001748    1.00   0.00  0.00  0.00  0.05  0.01  0.00  0.94  0.05  0.00
  YS02001748YS02001751    1.00   0.00  0.00  0.00  0.81  0.19  0.00  0.00  0.81  0.00
  YS02001751YS02001754    1.00   0.00  0.00  0.00  0.13  0.01  0.00  0.87  0.04  0.00
  YS02001754YS02001757    1.00   0.00  0.00  0.00  1.00  0.00  0.00  0.00  0.86  0.00
  YS02001757CaochengTiaoxuchi    1.00   0.00  0.00  0.00  0.98  0.02  0.00  0.00  0.74  0.00
  YS02001759YS02001757    1.00   0.00  0.00  0.00  1.00  0.00  0.00  0.00  0.61  0.00
  YS02001762YS02001759    1.00   0.00  0.00  0.00  1.00  0.00  0.00  0.00  0.05  0.00
  YS02001765YS02001762    1.00   0.00  0.00  0.00  1.00  0.00  0.00  0.00  0.75  0.00
  YS02001767YS02001765    1.00   0.00  0.00  0.00  1.00  0.00  0.00  0.00  0.01  0.00
  YS02001770YS02001767    1.00   0.00  0.00  0.00  1.00  0.00  0.00  0.00  0.00  0.00
  YS02001774YS02001770    1.00   0.00  0.14  0.00  0.68  0.00  0.18  0.00  0.03  0.00
  YS02001779YS02001774    1.00   0.00  0.00  0.00  1.00  0.00  0.00  0.00  0.80  0.00
  YS02001783YS02001784    1.00   0.00  0.18  0.00  0.82  0.00  0.00  0.00  0.57  0.00
  YS02001784YS02001785    1.00   0.00  0.00  0.00  1.00  0.00  0.00  0.00  0.17  0.00
  YS02001786YS02001788    1.00   0.00  0.00  0.00  0.79  0.21  0.00  0.00  0.00  0.00
  YS02001788YS02001790    1.00   0.00  0.00  0.00  0.20  0.80  0.00  0.00  0.85  0.00
  YS02001790YS02001791    1.00   0.00  0.00  0.00  0.01  0.99  0.00  0.00  0.16  0.00
  YS02001791YS02001793    1.00   0.00  0.00  0.00  0.00  1.00  0.00  0.00  0.00  0.00
  YS02001793JiankangQianchi    1.00   0.00  0.00  0.00  0.98  0.02  0.00  0.00  0.97  0.00
  YS02001882YS02001884    1.00   0.16  0.01  0.00  0.83  0.00  0.00  0.00  0.00  0.00
  YS02001884YS02001887    1.00   0.06  0.05  0.00  0.89  0.00  0.00  0.00  0.00  0.00
  YS02001887YS02001890    1.00   0.00  0.00  0.00  0.97  0.00  0.03  0.00  0.00  0.00
  YS02001890YS02001895    1.00   0.00  0.17  0.00  0.83  0.00  0.00  0.00  0.00  0.00
  YS02001895YS02001898    1.00   0.17  0.00  0.00  0.82  0.00  0.01  0.00  0.00  0.00
  YS02001898YS02001901    1.00   0.17  0.00  0.00  0.83  0.00  0.00  0.00  0.01  0.00
  YS02001901YS02001904    1.00   0.17  0.00  0.00  0.83  0.00  0.00  0.00  0.00  0.00
  YS02001904YS02001907    1.00   0.00  0.17  0.00  0.83  0.00  0.00  0.00  0.00  0.00
  YS02001907YS02006553    1.00   0.00  0.02  0.00  0.98  0.00  0.00  0.00  0.00  0.00
  YS02001910YS02001907    1.00   0.00  0.00  0.00  0.97  0.00  0.00  0.03  0.12  0.00
  YS02001915YS02001910    1.00   0.00  0.00  0.00  0.96  0.04  0.00  0.00  0.16  0.00
  YS02001918YS02001915    1.00   0.00  0.01  0.00  0.98  0.02  0.00  0.00  0.77  0.00
  YS02001920YS02001918    1.00   0.00  0.01  0.00  0.99  0.00  0.00  0.00  0.00  0.00
  YS02001923YS02001920    1.00   0.00  0.00  0.00  1.00  0.00  0.00  0.00  0.94  0.00
  YS02001926YS02001923    1.00   0.00  0.07  0.00  0.05  0.00  0.88  0.00  0.00  0.00
  YS02001929YS02001926    1.00   0.00  0.13  0.00  0.87  0.00  0.00  0.00  0.83  0.00
  YS02006553YS02006556    1.00   0.01  0.00  0.00  0.99  0.00  0.00  0.00  0.03  0.00
  YS02006556YS02006558    1.00   0.00  0.00  0.00  1.00  0.00  0.00  0.00  0.00  0.00
  YS02006558YS02006561    1.00   0.18  0.00  0.00  0.04  0.78  0.00  0.00  0.20  0.00
  YS02006561YS02001783    1.00   0.18  0.00  0.00  0.07  0.75  0.00  0.00  0.71  0.00
  YS02163301YS02001633    1.00   0.00  0.16  0.00  0.84  0.00  0.00  0.00  0.00  0.00
  YS02163601YS02164001    1.00   0.00  0.08  0.00  0.92  0.00  0.00  0.00  0.00  0.00
  YS02164001YS02001641    1.00   0.01  0.07  0.00  0.92  0.00  0.00  0.00  0.06  0.00
  
  
  *************************
  Conduit Surcharge Summary
  *************************
  
  ----------------------------------------------------------------------------
                                                           Hours        Hours 
                         --------- Hours Full --------   Above Full   Capacity
  Conduit                Both Ends  Upstream  Dnstream   Normal Flow   Limited
  ----------------------------------------------------------------------------
  WS02003072WS02003073        0.01      0.01      0.01      0.75         0.01
  WS02004404WS02004405        0.01      0.01      0.01      2.57         0.01
  WS02004405WS02004406        0.01      0.01      0.01      0.33         0.01
  WS02006109WS02006110        0.42      0.42      1.62      0.50         0.01
  WS02006110WS02006113        0.01      0.01      1.61      0.01         0.01
  WS02006111WS02006112        0.01      0.01      1.74      0.01         0.01
  WS02006112WS02006115        0.01      0.01      0.38      0.01         0.01
  WS02006228WS02006109        1.60      1.62      1.60      1.95         1.60
  WS02006229WS02006228        1.60      1.60      1.60      1.77         1.59
  WS02006230WS02006229        1.66      1.72      1.66      3.24         1.66
  WS02006231WS02006230        0.43      0.43      0.54      2.83         0.01
  WS02006232WS02006231        0.51      0.51      1.62      0.55         0.01
  WS02006234WS02006232        1.56      1.56      1.62      0.54         0.54
  WS02006235WS02006234        0.76      0.76      1.57      2.62         0.01
  WS02006238WS02006235        1.58      1.58      1.62      0.01         0.01
  WS02006239WS02006238        1.60      1.61      1.60      1.77         1.51
  WS02006240WS02006239        1.58      1.59      1.58      1.76         1.46
  WS02006242WS02006240        1.59      1.59      1.67      1.88         0.01
  WS02006243WS02006242        1.59      1.59      1.64      0.01         0.02
  WS02006245WS02006243        1.59      1.59      1.59      1.33         1.16
  WS02006247WS02006245        1.59      1.61      1.59      2.38         1.58
  WS02006248WS02006247        1.58      1.58      1.60      0.01         0.03
  WS02006249WS02006248        1.58      1.58      1.59      2.34         0.01
  WS02006251WS02006249        1.59      1.60      1.59      1.84         1.54
  WS02006252WS02006251        1.90      1.90      1.92      1.90         0.01
  WS02006256WS02006235        2.68      2.71      6.50      0.86         0.01
  YS02001580YS02001583        0.41      0.41      0.47      0.01         0.01
  YS02001583YS02001586        0.42      0.42      0.56      0.01         0.01
  YS02001586YS02001590        0.57      0.57      0.63      0.01         0.01
  YS02001590YS02001593        0.62      0.62      0.64      0.68         0.01
  YS02001593YS02001596        0.63      0.63      0.71      0.01         0.01
  YS02001596YS02001600        0.74      0.74      0.83      0.01         0.01
  YS02001600YS02001601        0.88      0.88      1.19      0.01         0.01
  YS02001601YS02001602        1.06      1.06      1.24      0.85         0.01
  YS02001602YS02001605        1.01      1.01      1.06      1.99         0.01
  YS02001605YS02001607        0.97      1.01      0.97      1.13         0.97
  YS02001607YS02001610        0.57      0.57      0.59      0.01         0.01
  YS02001610YS02001613        0.56      0.56      0.59      0.01         0.01
  YS02001613YS02001616        0.53      0.53      0.56      0.01         0.01
  YS02001616YS02001619        0.51      0.51      0.53      0.01         0.01
  YS02001619YS02001622        0.51      0.51      0.51      0.67         0.49
  YS02001622YS02001625        0.51      0.51      0.67      0.01         0.01
  YS02001625YS02001629        0.45      0.45      0.67      0.01         0.01
  YS02001629YS02163301        0.66      0.66      0.67      0.25         0.24
  YS02001633YS02163601        0.68      0.68      0.71      0.46         0.46
  YS02001641YS02001644        0.59      0.62      0.59      1.30         0.59
  YS02001644YS02001647        0.38      0.38      0.59      0.03         0.01
  YS02001647YS02001649        0.38      0.38      0.48      0.01         0.01
  YS02001649YS02001757        0.48      0.48      0.54      0.33         0.30
  YS02001652YS02001649        0.31      0.31      0.48      0.01         0.01
  YS02001655YS02001652        0.11      0.11      0.28      0.01         0.01
  YS02001658YS02001655        0.02      0.02      0.11      0.01         0.01
  YS02001661YS02001658        0.01      0.01      0.02      0.01         0.01
  YS02001748YS02001751        0.01      0.01      0.04      0.01         0.01
  YS02001751YS02001754        0.04      0.04      0.13      0.01         0.01
  YS02001754YS02001757        0.19      0.19      0.54      0.01         0.01
  YS02001757CaochengTiaoxuchi        0.39      0.54      1.55      0.31         0.15
  YS02001759YS02001757        0.41      0.41      0.54      0.01         0.01
  YS02001762YS02001759        0.38      0.38      0.41      0.01         0.01
  YS02001765YS02001762        0.34      0.34      0.38      0.01         0.01
  YS02001767YS02001765        0.30      0.30      0.34      0.01         0.02
  YS02001770YS02001767        0.30      0.30      0.30      0.41         0.26
  YS02001774YS02001770        0.27      0.27      0.37      0.01         0.01
  YS02001779YS02001774        0.17      0.17      0.37      0.01         0.01
  YS02001783YS02001784        0.40      0.42      0.40      0.53         0.40
  YS02001784YS02001785        0.31      0.40      0.31      0.71         0.31
  YS02001786YS02001788        0.01      0.31      0.01      0.60         0.01
  YS02001790YS02001791        0.01      0.01      0.01      0.39         0.01
  YS02001793JiankangQianchi        0.01      0.01      6.98      0.01         0.01
  YS02001882YS02001884        0.37      0.37      0.38      0.01         0.01
  YS02001884YS02001887        0.40      0.40      0.41      0.01         0.01
  YS02001887YS02001890        0.42      0.42      0.43      0.01         0.01
  YS02001890YS02001895        0.36      0.36      0.45      0.01         0.01
  YS02001895YS02001898        0.36      0.36      0.36      0.01         0.01
  YS02001898YS02001901        0.36      0.36      0.40      0.01         0.01
  YS02001901YS02001904        0.39      0.39      0.40      0.01         0.01
  YS02001904YS02001907        0.39      0.39      0.59      0.01         0.01
  YS02001907YS02006553        0.72      0.72      0.78      0.01         0.01
  YS02001910YS02001907        0.44      0.44      0.58      0.01         0.01
  YS02001915YS02001910        0.37      0.37      0.44      0.01         0.01
  YS02001918YS02001915        0.29      0.29      0.37      0.01         0.01
  YS02001920YS02001918        0.29      0.29      0.30      0.01         0.01
  YS02001923YS02001920        0.25      0.25      0.30      0.01         0.01
  YS02001926YS02001923        0.01      0.01      0.01      0.01         0.01
  YS02001929YS02001926        0.01      0.01      0.01      0.01         0.01
  YS02006553YS02006556        0.51      0.51      0.59      0.01         0.01
  YS02006556YS02006558        0.55      0.55      0.60      0.01         0.01
  YS02006558YS02006561        0.32      0.50      0.32      0.67         0.32
  YS02006561YS02001783        0.25      0.25      0.42      0.01         0.01
  YS02163301YS02001633        0.67      0.67      0.70      0.01         0.01
  YS02163601YS02164001        0.63      0.63      0.71      0.15         0.01
  YS02164001YS02001641        0.62      0.63      0.62      0.73         0.59
  
  
  ***************
  Pumping Summary
  ***************
  
  ---------------------------------------------------------------------------------------------------------
                                                  Min       Avg       Max     Total     Power    % Time Off
                        Percent   Number of      Flow      Flow      Flow    Volume     Usage    Pump Curve
  Pump                 Utilized   Start-Ups       LPS       LPS       LPS  10^6 ltr     Kw-hr    Low   High
  ---------------------------------------------------------------------------------------------------------
  CC-R1                   20.29          22      0.00    683.00    683.00     3.992     71.49    0.0   35.9
  CC-R2                   12.72          26      0.00    683.00    683.00     2.502     44.37    0.0   44.2
  CC-S1                   29.10          15      0.00    200.00    200.00     1.676     10.10    0.0    0.0
  CC-S2                   25.56          14      0.00    200.00    200.00     1.472      8.89    0.0    0.0
  JK-R1                    6.36          13      0.00   1000.00   1000.00     1.833     18.14    0.0    0.0
  JK-R2                    2.65          11      0.00   1000.00   1000.00     0.763      6.22    0.0    0.0
  JK-S                    10.10          35      0.00    300.00    300.00     0.873     14.98    0.0    0.0
  

  Analysis begun on:  Wed Dec 25 13:04:35 2024
  Analysis ended on:  Wed Dec 25 13:04:37 2024
  Total elapsed time: 00:00:02