
  EPA STORM WATER MANAGEMENT MODEL - VERSION 5.2 (Build 5.2.4)
  PYSWMM TOOLKIT API - VERSION v1.0 (2023-11-27)
  ------------------------------------------------------------

  WARNING 04: minimum elevation drop used for Conduit WS02004404WS02004405
  WARNING 03: negative offset ignored for Link YS02001904YS02001907
  
  ****************
  Analysis Options
  ****************
  Flow Units ............... LPS
  Process Models:
    Rainfall/Runoff ........ YES
    RDII ................... NO
    Snowmelt ............... NO
    Groundwater ............ NO
    Flow Routing ........... YES
    Ponding Allowed ........ NO
    Water Quality .......... NO
  Infiltration Method ...... HORTON
  Flow Routing Method ...... DYNWAVE
  Surcharge Method ......... EXTRAN
  Starting Date ............ 08/28/2015 08:00:00
  Ending Date .............. 08/28/2015 16:00:00
  Antecedent Dry Days ...... 8.0
  Report Time Step ......... 00:01:00
  Wet Time Step ............ 00:01:00
  Dry Time Step ............ 00:01:00
  Routing Time Step ........ 30.00 sec
  Variable Time Step ....... YES
  Maximum Trials ........... 8
  Number of Threads ........ 4
  Head Tolerance ........... 0.001500 m
  
  
  **************************        Volume         Depth
  Runoff Quantity Continuity     hectare-m            mm
  **************************     ---------       -------
  Total Precipitation ......         2.707        81.619
  Evaporation Loss .........         0.000         0.000
  Infiltration Loss ........         0.105         3.172
  Surface Runoff ...........         2.570        77.468
  Final Storage ............         0.033         0.997
  Continuity Error (%) .....        -0.021
  
  
  **************************        Volume        Volume
  Flow Routing Continuity        hectare-m      10^6 ltr
  **************************     ---------     ---------
  Dry Weather Inflow .......         0.025         0.251
  Wet Weather Inflow .......         2.569        25.695
  Groundwater Inflow .......         0.000         0.000
  RDII Inflow ..............         0.000         0.000
  External Inflow ..........         0.083         0.834
  External Outflow .........         1.801        18.007
  Flooding Loss ............         0.946         9.456
  Evaporation Loss .........         0.000         0.000
  Exfiltration Loss ........         0.000         0.000
  Initial Stored Volume ....         0.243         2.431
  Final Stored Volume ......         0.182         1.816
  Continuity Error (%) .....        -0.235
  
  
  *************************
  Highest Continuity Errors
  *************************
  Node YS02001884 (5.15%)
  Node YS02001583 (-3.07%)
  Node WS02006256 (-1.49%)
  
  
  ***************************
  Time-Step Critical Elements
  ***************************
  Link WS02006252WS02006251 (40.24%)
  Link WS02006238WS02006235 (18.15%)
  Link WS02004404WS02004405 (15.27%)
  Link YS02001791YS02001793 (8.36%)
  Link WS02006235WS02006234 (3.17%)
  
  
  ********************************
  Highest Flow Instability Indexes
  ********************************
  Link WS02006113WS02006111 (45)
  Link WS02006111WS02006112 (21)
  Link WS02004404WS02004405 (20)
  Link WS02006256WS02006235 (20)
  Link WS02006252WS02006251 (19)
  
  
  *********************************
  Most Frequent Nonconverging Nodes
  *********************************
  Node CC-1 (12.02%)
  Node CC-2 (12.02%)
  Node JK-1 (12.02%)
  Node JK-2 (12.02%)
  Node WSC (12.02%)
  
  
  *************************
  Routing Time Step Summary
  *************************
  Minimum Time Step           :     0.01 sec
  Average Time Step           :     2.04 sec
  Maximum Time Step           :     7.04 sec
  % of Time in Steady State   :     0.00
  Average Iterations per Step :     3.22
  % of Steps Not Converging   :    12.02
  Time Step Frequencies       :
     30.000 - 13.228 sec      :     0.00 %
     13.228 -  5.833 sec      :     9.76 %
      5.833 -  2.572 sec      :    16.56 %
      2.572 -  1.134 sec      :    25.97 %
      1.134 -  0.500 sec      :    47.71 %
  
  
  ***************************
  Subcatchment Runoff Summary
  ***************************
  
  ------------------------------------------------------------------------------------------------------------------------------
                            Total      Total      Total      Total     Imperv       Perv      Total       Total     Peak  Runoff
                           Precip      Runon       Evap      Infil     Runoff     Runoff     Runoff      Runoff   Runoff   Coeff
  Subcatchment                 mm         mm         mm         mm         mm         mm         mm    10^6 ltr      LPS
  ------------------------------------------------------------------------------------------------------------------------------
  sub60                     81.62       0.00       0.00       1.87      70.63       7.92      78.55        1.03   722.22   0.962
  sub61                     81.62       0.00       0.00       2.73      66.62      11.15      77.77        1.43  1005.30   0.953
  sub62                     81.62       0.00       0.00       1.25      73.81       5.28      79.09        2.17  1422.87   0.969
  sub63                     81.62       0.00       0.00       5.07      56.98      18.60      75.58        1.72  1159.39   0.926
  sub64                     81.62       0.00       0.00       2.56      68.17       9.69      77.86        1.87  1176.32   0.954
  sub65                     81.62       0.00       0.00       2.21      69.76       8.40      78.15        2.15  1316.04   0.958
  sub66                     81.62       0.00       0.00       6.34      56.87      17.33      74.20        3.46  1807.35   0.909
  sub67                     81.62       0.00       0.00       1.20      73.85       5.34      79.19        1.47  1069.49   0.970
  sub68                     81.62       0.00       0.00       2.26      69.01       9.17      78.18        2.15  1458.83   0.958
  sub69                     81.62       0.00       0.00       2.06      69.27      10.19      79.45        2.94  1748.21   0.973
  sub70                     81.62       0.00       0.00       6.92      53.70      20.83      74.53        2.15  1017.95   0.913
  sub71                     81.62       0.00       0.00       1.29      73.76       5.24      79.01        2.07  1266.79   0.968
  sub72                     81.62       0.00       0.00       1.15      74.50       4.57      79.07        1.09   617.94   0.969
  
  
  ******************
  Node Depth Summary
  ******************
  
  ---------------------------------------------------------------------------------
                                 Average  Maximum  Maximum  Time of Max    Reported
                                   Depth    Depth      HGL   Occurrence   Max Depth
  Node                 Type       Meters   Meters   Meters  days hr:min      Meters
  ---------------------------------------------------------------------------------
  WS02003060           JUNCTION     0.24     0.38     5.32     0  02:55        0.38
  WS02003066           JUNCTION     0.20     0.30     5.85     0  02:54        0.30
  WS02003067           JUNCTION     0.50     0.70     6.02     0  02:54        0.70
  WS02003069           JUNCTION     0.26     0.43     5.01     0  02:58        0.43
  WS02003072           JUNCTION     0.33     0.50     4.87     0  02:56        0.50
  WS02003073           JUNCTION     0.19     0.30     4.36     0  02:57        0.30
  WS02004401           JUNCTION     0.59     0.88     6.88     0  02:53        0.88
  WS02004402           JUNCTION     0.63     0.90     6.86     0  02:56        0.90
  WS02004403           JUNCTION     0.65     0.92     6.85     0  02:52        0.92
  WS02004404           JUNCTION     0.73     1.03     6.88     0  02:54        1.02
  WS02004405           JUNCTION     0.71     0.97     6.82     0  02:35        0.97
  WS02004406           JUNCTION     0.73     0.96     6.79     0  02:55        0.96
  WS02004407           JUNCTION     0.18     0.30     6.61     0  02:51        0.30
  WS02004409           JUNCTION     0.39     0.67     6.44     0  02:56        0.67
  WS02004410           JUNCTION     0.42     0.68     6.40     0  02:56        0.68
  WS02004411           JUNCTION     0.44     0.69     6.37     0  02:56        0.69
  WS02004412           JUNCTION     0.46     0.70     6.34     0  02:57        0.70
  WS02004413           JUNCTION     0.62     0.86     6.33     0  02:57        0.86
  WS02006109           JUNCTION     0.64     1.22     7.84     0  02:41        1.22
  WS02006110           JUNCTION     0.64     1.20     7.79     0  02:40        1.01
  WS02006111           JUNCTION     0.17     0.29     6.99     0  03:09        0.29
  WS02006112           JUNCTION     0.74     1.10     6.98     0  03:04        1.07
  WS02006113           JUNCTION     0.26     0.46     7.35     0  03:19        0.46
  WS02006115           JUNCTION     0.48     0.78     6.91     0  02:53        0.77
  WS02006116           JUNCTION     0.56     0.86     6.90     0  02:54        0.85
  WS02006228           JUNCTION     0.63     1.27     7.92     0  02:58        1.27
  WS02006229           JUNCTION     0.60     1.31     8.00     0  02:58        1.21
  WS02006230           JUNCTION     0.59     1.56     8.30     0  02:58        1.19
  WS02006231           JUNCTION     0.41     1.20     8.33     0  02:40        0.97
  WS02006232           JUNCTION     0.54     1.62     8.66     0  02:09        1.20
  WS02006234           JUNCTION     0.46     1.88     9.04     0  02:09        1.43
  WS02006235           JUNCTION     0.50     2.00     9.16     0  02:09        1.69
  WS02006238           JUNCTION     0.53     2.10     9.24     0  02:40        1.78
  WS02006239           JUNCTION     0.50     2.03     9.24     0  02:40        1.91
  WS02006240           JUNCTION     0.46     1.86     9.15     0  02:58        1.86
  WS02006242           JUNCTION     0.53     1.55     8.82     0  02:09        1.55
  WS02006243           JUNCTION     0.45     1.48     8.90     0  02:58        1.48
  WS02006245           JUNCTION     0.45     1.39     8.87     0  02:58        1.39
  WS02006247           JUNCTION     0.48     1.36     8.86     0  02:58        1.36
  WS02006248           JUNCTION     0.44     1.10     8.69     0  02:09        1.10
  WS02006249           JUNCTION     0.48     1.09     8.69     0  02:05        1.09
  WS02006251           JUNCTION     0.47     1.36     9.03     0  03:24        1.36
  WS02006252           JUNCTION     0.35     1.50     9.74     0  00:00        0.93
  WS02006256           JUNCTION     0.93     2.35     9.28     0  00:00        2.35
  WSF200               JUNCTION     0.17     0.29     5.52     0  02:54        0.29
  YS02001580           JUNCTION     0.10     1.05     9.59     0  02:06        0.77
  YS02001583           JUNCTION     0.13     1.14     9.64     0  02:06        0.83
  YS02001586           JUNCTION     0.22     1.13     9.30     0  02:06        1.13
  YS02001590           JUNCTION     0.32     1.40     9.26     0  02:06        1.38
  YS02001593           JUNCTION     0.25     1.32     9.19     0  02:06        1.32
  YS02001596           JUNCTION     0.33     1.68     9.10     0  02:06        1.65
  YS02001600           JUNCTION     0.40     1.87     9.00     0  02:06        1.86
  YS02001601           JUNCTION     0.60     2.06     8.90     0  02:05        2.06
  YS02001602           JUNCTION     0.51     1.87     8.77     0  02:11        1.87
  YS02001605           JUNCTION     0.48     1.78     8.68     0  02:14        1.78
  YS02001607           JUNCTION     0.46     1.65     8.49     0  02:24        1.65
  YS02001610           JUNCTION     0.51     1.68     8.48     0  02:12        1.68
  YS02001613           JUNCTION     0.47     1.67     8.51     0  02:24        1.66
  YS02001616           JUNCTION     0.40     1.61     8.52     0  02:22        1.61
  YS02001619           JUNCTION     0.37     1.61     8.54     0  02:22        1.61
  YS02001622           JUNCTION     0.36     1.59     8.49     0  02:24        1.59
  YS02001625           JUNCTION     0.62     1.78     8.38     0  02:12        1.78
  YS02001629           JUNCTION     0.49     1.85     8.40     0  02:15        1.85
  YS02001633           JUNCTION     0.56     2.08     8.53     0  02:24        2.08
  YS02001641           JUNCTION     0.55     1.96     8.40     0  02:24        1.96
  YS02001644           JUNCTION     0.54     1.92     8.35     0  02:17        1.92
  YS02001647           JUNCTION     0.32     1.77     8.38     0  02:24        1.77
  YS02001649           JUNCTION     0.37     2.03     8.42     0  02:24        2.03
  YS02001652           JUNCTION     0.25     1.89     8.49     0  02:24        1.89
  YS02001655           JUNCTION     0.19     1.71     8.56     0  02:24        1.71
  YS02001658           JUNCTION     0.14     1.49     8.63     0  02:24        1.49
  YS02001661           JUNCTION     0.17     1.28     8.69     0  02:24        1.27
  YS02001664           JUNCTION     0.06     0.78     8.70     0  02:24        0.75
  YS02001745           JUNCTION     0.08     0.94     8.46     0  02:24        0.94
  YS02001748           JUNCTION     0.13     1.36     8.44     0  02:24        1.35
  YS02001751           JUNCTION     0.16     1.53     8.41     0  02:24        1.52
  YS02001754           JUNCTION     0.22     1.77     8.38     0  02:24        1.77
  YS02001757           JUNCTION     0.38     2.11     8.37     0  02:24        2.11
  YS02001759           JUNCTION     0.32     2.13     8.50     0  02:24        2.13
  YS02001762           JUNCTION     0.31     2.07     8.47     0  02:24        2.07
  YS02001765           JUNCTION     0.29     2.00     8.45     0  02:22        2.00
  YS02001767           JUNCTION     0.29     1.97     8.45     0  02:22        1.95
  YS02001770           JUNCTION     0.30     1.95     8.44     0  02:22        1.95
  YS02001774           JUNCTION     0.37     2.01     8.43     0  02:24        2.01
  YS02001779           JUNCTION     0.20     1.68     8.37     0  02:18        1.68
  YS02001783           JUNCTION     0.25     1.26     7.40     0  02:24        1.25
  YS02001784           JUNCTION     0.27     1.14     7.21     0  02:24        1.14
  YS02001786           JUNCTION     0.22     0.89     6.92     0  02:24        0.88
  YS02001788           JUNCTION     0.16     0.63     6.60     0  02:24        0.62
  YS02001790           JUNCTION     0.19     0.73     6.38     0  02:24        0.73
  YS02001791           JUNCTION     0.12     0.44     5.91     0  02:29        0.43
  YS02001793           JUNCTION     0.06     0.30     5.13     0  02:20        0.28
  YS02001882           JUNCTION     0.32     1.74     8.46     0  02:24        1.74
  YS02001884           JUNCTION     0.41     1.83     8.44     0  02:24        1.83
  YS02001887           JUNCTION     0.49     1.93     8.47     0  02:24        1.93
  YS02001890           JUNCTION     0.52     1.81     8.32     0  02:13        1.81
  YS02001895           JUNCTION     0.29     1.56     8.31     0  02:22        1.56
  YS02001898           JUNCTION     0.30     1.56     8.30     0  02:24        1.56
  YS02001901           JUNCTION     0.41     1.68     8.29     0  02:16        1.67
  YS02001904           JUNCTION     0.39     1.64     8.27     0  02:19        1.64
  YS02001907           JUNCTION     0.71     1.96     8.25     0  02:13        1.96
  YS02001910           JUNCTION     0.51     2.03     8.54     0  02:24        2.03
  YS02001915           JUNCTION     0.32     2.00     8.72     0  02:24        2.00
  YS02001918           JUNCTION     0.18     1.68     8.75     0  02:24        1.68
  YS02001920           JUNCTION     0.26     1.78     8.79     0  02:14        1.75
  YS02001923           JUNCTION     0.14     1.58     8.84     0  02:14        1.52
  YS02001926           JUNCTION     0.17     1.45     8.90     0  02:14        1.36
  YS02001929           JUNCTION     0.10     1.37     9.07     0  02:14        1.14
  YS02006553           JUNCTION     0.72     2.01     8.29     0  02:24        2.01
  YS02006556           JUNCTION     0.69     2.01     8.32     0  02:24        2.01
  YS02006558           JUNCTION     0.73     2.11     8.37     0  02:24        2.11
  YS02006561           JUNCTION     0.16     0.93     7.59     0  02:24        0.91
  YS02163301           JUNCTION     0.51     1.95     8.47     0  02:24        1.95
  YS02163601           JUNCTION     0.60     2.06     8.46     0  02:24        2.06
  YS02164001           JUNCTION     0.53     1.97     8.43     0  02:24        1.97
  CC-1                 OUTFALL      0.00     0.00     0.00     0  00:00        0.00
  CC-2                 OUTFALL      0.00     0.00     0.00     0  00:00        0.00
  JK-1                 OUTFALL      0.00     0.00     0.00     0  00:00        0.00
  JK-2                 OUTFALL      0.00     0.00     0.00     0  00:00        0.00
  WSC                  OUTFALL      0.19     0.30     0.97     0  02:58        0.30
  CC-storage           STORAGE      0.86     1.73     7.23     0  02:49        1.73
  JK-storage           STORAGE      1.88     4.22     5.02     0  02:09        4.20
  
  
  *******************
  Node Inflow Summary
  *******************
  
  -------------------------------------------------------------------------------------------------
                                  Maximum  Maximum                  Lateral       Total        Flow
                                  Lateral    Total  Time of Max      Inflow      Inflow     Balance
                                   Inflow   Inflow   Occurrence      Volume      Volume       Error
  Node                 Type           LPS      LPS  days hr:min    10^6 ltr    10^6 ltr     Percent
  -------------------------------------------------------------------------------------------------
  WS02003060           JUNCTION     16.53   554.80     0  02:55       0.476        5.35       0.043
  WS02003066           JUNCTION      0.00   537.83     0  02:54           0        4.87       0.028
  WS02003067           JUNCTION      0.00   537.80     0  02:57           0        4.88       0.085
  WS02003069           JUNCTION      0.32   554.75     0  02:55     0.00922        5.35       0.072
  WS02003072           JUNCTION      0.00   554.50     0  02:58           0        5.35       0.129
  WS02003073           JUNCTION      1.82   556.22     0  02:57      0.0524         5.4       0.106
  WS02004401           JUNCTION      0.00   539.54     0  02:54           0        4.97       0.203
  WS02004402           JUNCTION      0.00   540.05     0  02:53           0        4.96       0.207
  WS02004403           JUNCTION      0.00   541.84     0  02:51           0        4.95       0.200
  WS02004404           JUNCTION      0.16   560.34     0  02:49     0.00467        4.95       0.157
  WS02004405           JUNCTION      0.04   608.00     0  02:51      0.0011        4.94       0.172
  WS02004406           JUNCTION      0.00   544.55     0  02:36           0        4.93       0.416
  WS02004407           JUNCTION      0.00   540.05     0  02:51           0        4.91       0.022
  WS02004409           JUNCTION      0.00   539.67     0  02:51           0        4.91       0.053
  WS02004410           JUNCTION      0.00   538.75     0  02:51           0        4.91       0.087
  WS02004411           JUNCTION      0.00   538.26     0  02:56           0         4.9       0.112
  WS02004412           JUNCTION      0.00   538.09     0  02:57           0         4.9       0.152
  WS02004413           JUNCTION      0.00   538.06     0  02:54           0        4.89       0.268
  WS02006109           JUNCTION      1.23   570.94     0  02:58      0.0354        5.02       0.179
  WS02006110           JUNCTION      0.00   575.60     0  02:58           0        5.01       0.131
  WS02006111           JUNCTION      0.00   560.62     0  03:05           0           5       0.014
  WS02006112           JUNCTION      0.00   543.67     0  03:20           0           5       0.352
  WS02006113           JUNCTION      0.00   574.20     0  02:41           0        5.01       0.033
  WS02006115           JUNCTION      0.00   551.11     0  02:41           0        4.99       0.129
  WS02006116           JUNCTION      0.00   538.88     0  02:53           0        4.98       0.115
  WS02006228           JUNCTION      0.00   564.01     0  02:58           0        4.99       0.081
  WS02006229           JUNCTION      0.00   562.43     0  02:58           0        4.99       0.095
  WS02006230           JUNCTION     10.28   597.92     0  02:58       0.296           5       0.079
  WS02006231           JUNCTION      0.00   596.12     0  02:58           0         4.7      -0.013
  WS02006232           JUNCTION      0.00   594.54     0  02:58           0        4.71       0.139
  WS02006234           JUNCTION      0.00   591.18     0  02:58           0         4.7      -0.258
  WS02006235           JUNCTION      0.00   582.08     0  01:43           0        4.78       0.227
  WS02006238           JUNCTION      0.00   424.64     0  02:55           0        3.86      -0.259
  WS02006239           JUNCTION      0.00   423.79     0  02:55           0         3.8      -0.151
  WS02006240           JUNCTION      0.00   420.98     0  02:55           0        3.77      -0.084
  WS02006242           JUNCTION      0.00   421.16     0  02:55           0        3.75       0.006
  WS02006243           JUNCTION      0.00   420.95     0  02:06           0        3.74      -0.202
  WS02006245           JUNCTION      0.00   420.39     0  02:06           0        3.76       0.552
  WS02006247           JUNCTION      0.00   419.89     0  02:06           0        3.76       0.027
  WS02006248           JUNCTION      0.00   420.11     0  02:35           0        3.76       0.046
  WS02006249           JUNCTION      0.00   474.91     0  02:00           0        4.03       0.504
  WS02006251           JUNCTION      0.08   407.97     0  03:24     0.00222        4.03       0.005
  WS02006252           JUNCTION      0.00   400.00     0  00:00           0        4.01      -0.228
  WS02006256           JUNCTION      0.00   300.00     0  00:00           0        1.38      -1.471
  WSF200               JUNCTION      0.00   537.90     0  02:54           0        4.87       0.010
  YS02001580           JUNCTION      0.00    60.83     0  02:05           0     0.00412      -1.009
  YS02001583           JUNCTION      0.00   100.03     0  02:05           0      0.0158      -2.981
  YS02001586           JUNCTION   1017.95  1017.95     0  02:26        2.15        2.17       0.042
  YS02001590           JUNCTION      0.00   318.03     0  02:33           0        1.53      -0.033
  YS02001593           JUNCTION      0.00   318.08     0  02:16           0        1.53       0.002
  YS02001596           JUNCTION      0.00   318.02     0  02:16           0        1.53      -0.006
  YS02001600           JUNCTION      0.00   318.03     0  02:24           0        1.53       0.024
  YS02001601           JUNCTION   1748.21  2065.53     0  02:25        2.94        4.48       0.023
  YS02001602           JUNCTION      0.00   493.62     0  02:05           0        2.58       0.019
  YS02001605           JUNCTION      0.00   493.15     0  02:05           0        2.44       0.023
  YS02001607           JUNCTION      0.00   492.53     0  02:05           0        2.44       0.080
  YS02001610           JUNCTION      0.00   951.89     0  02:27           0        2.88       0.083
  YS02001613           JUNCTION      0.00   616.18     0  02:27           0         2.3       0.070
  YS02001616           JUNCTION      0.00   615.93     0  02:27           0         2.3       0.011
  YS02001619           JUNCTION   1807.35  1807.35     0  02:26        3.46        5.32      -0.001
  YS02001622           JUNCTION      0.00  1053.84     0  02:27           0        4.85      -0.000
  YS02001625           JUNCTION      0.00  1504.15     0  02:28           0        5.19       0.188
  YS02001629           JUNCTION      0.00   935.19     0  02:12           0        3.97       0.015
  YS02001633           JUNCTION   1316.24  1352.70     0  02:12        2.16        5.73       0.062
  YS02001641           JUNCTION      0.00  1355.18     0  02:12           0        5.33       0.052
  YS02001644           JUNCTION   1176.36  1918.19     0  02:25        1.87         7.2       0.049
  YS02001647           JUNCTION      0.00  1727.60     0  02:12           0        6.34       0.008
  YS02001649           JUNCTION      0.00  1977.68     0  02:15           0        8.05       0.003
  YS02001652           JUNCTION      0.00  1172.01     0  02:25           0        1.72      -0.054
  YS02001655           JUNCTION      0.15  1171.30     0  02:25     0.00443        1.72       0.013
  YS02001658           JUNCTION      0.00  1171.51     0  02:25           0        1.72       0.001
  YS02001661           JUNCTION      0.00  1170.47     0  02:25           0        1.72       0.009
  YS02001664           JUNCTION   1159.39  1159.39     0  02:25        1.72        1.72      -0.008
  YS02001745           JUNCTION    722.23   722.23     0  02:25        1.03        1.03       0.128
  YS02001748           JUNCTION      0.04   724.98     0  02:25      0.0013        1.03      -0.201
  YS02001751           JUNCTION      0.01   726.14     0  02:25    0.000317        1.04      -0.005
  YS02001754           JUNCTION      0.26   726.37     0  02:25     0.00749        1.04      -0.130
  YS02001757           JUNCTION      0.00  3272.19     0  02:19           0        12.3       0.041
  YS02001759           JUNCTION   1005.34  1386.09     0  02:24        1.43        3.21      -0.006
  YS02001762           JUNCTION      0.00   740.92     0  02:19           0        1.78       0.009
  YS02001765           JUNCTION      0.00   741.00     0  02:19           0        1.78       0.005
  YS02001767           JUNCTION      0.54   740.92     0  02:19      0.0154        1.78      -0.000
  YS02001770           JUNCTION   1423.02  1423.02     0  02:25        2.17        2.22      -0.012
  YS02001774           JUNCTION      0.00   849.38     0  02:26           0        0.45       0.239
  YS02001779           JUNCTION      0.01   849.61     0  02:26    0.000144       0.405      -0.033
  YS02001783           JUNCTION      0.00  1170.92     0  02:24           0        4.69       0.006
  YS02001784           JUNCTION      1.06  1171.51     0  02:24      0.0305        4.72       0.011
  YS02001786           JUNCTION      0.06  1171.51     0  02:24     0.00162        4.73       0.016
  YS02001788           JUNCTION      0.07  1172.64     0  02:24     0.00204        4.73       0.007
  YS02001790           JUNCTION      0.15  1175.30     0  02:22     0.00446        4.73       0.024
  YS02001791           JUNCTION      0.00  1303.32     0  02:24           0        4.73      -0.034
  YS02001793           JUNCTION      0.00  1257.42     0  02:20           0        4.73       0.003
  YS02001882           JUNCTION      0.00    29.51     0  02:10           0      0.0133       5.056
  YS02001884           JUNCTION      0.00    37.39     0  02:09           0      0.0494       5.426
  YS02001887           JUNCTION   1069.94  1070.49     0  02:25        1.49        1.52       0.292
  YS02001890           JUNCTION      0.00  1069.76     0  02:25           0        1.48       0.359
  YS02001895           JUNCTION      0.00   518.17     0  02:24           0        1.28       0.136
  YS02001898           JUNCTION      0.00   517.65     0  02:26           0        1.28       0.012
  YS02001901           JUNCTION      0.00   517.52     0  02:29           0        1.28       0.255
  YS02001904           JUNCTION      0.00   517.95     0  02:24           0        1.28       0.227
  YS02001907           JUNCTION      0.00  2708.77     0  02:25           0        4.57       0.394
  YS02001910           JUNCTION      0.00  1892.83     0  02:25           0        3.24       0.227
  YS02001915           JUNCTION   1266.81  1892.70     0  02:25        2.07        3.26       0.046
  YS02001918           JUNCTION      0.00   627.27     0  02:25           0         1.2       0.007
  YS02001920           JUNCTION      2.87   626.76     0  02:25      0.0827        1.19       0.083
  YS02001923           JUNCTION      0.04   621.61     0  02:25     0.00109         1.1      -0.027
  YS02001926           JUNCTION      0.05   620.27     0  02:25      0.0015        1.09      -0.000
  YS02001929           JUNCTION    617.94   617.94     0  02:26        1.09        1.09      -0.031
  YS02006553           JUNCTION      0.00   805.92     0  02:40           0        2.67       0.451
  YS02006556           JUNCTION      0.00   806.11     0  02:40           0        2.68       0.301
  YS02006558           JUNCTION   1459.71  1459.71     0  02:25        2.18        4.78       0.073
  YS02006561           JUNCTION      0.00  1169.96     0  02:24           0        4.69      -0.001
  YS02163301           JUNCTION      0.00   933.90     0  02:12           0        3.97       0.040
  YS02163601           JUNCTION      0.11  1353.76     0  02:12     0.00317        5.32       0.093
  YS02164001           JUNCTION      0.00  1353.98     0  02:12           0        5.32       0.043
  CC-1                 OUTFALL       0.00   683.00     0  00:00           0        5.29       0.000
  CC-2                 OUTFALL       0.00   683.00     0  00:00           0        3.85       0.000
  JK-1                 OUTFALL       0.00  1000.00     0  00:00           0        2.42       0.000
  JK-2                 OUTFALL       0.00  1000.00     0  00:00           0        1.05       0.000
  WSC                  OUTFALL       0.00   556.19     0  02:58           0        5.39       0.000
  CC-storage           STORAGE       0.00  3272.55     0  02:19           0        14.5      -0.218
  JK-storage           STORAGE       0.00  1283.10     0  02:17           0        4.88      -0.324
  
  
  **********************
  Node Surcharge Summary
  **********************
  
  Surcharging occurs when water rises above the top of the highest conduit.
  ---------------------------------------------------------------------
                                               Max. Height   Min. Depth
                                   Hours       Above Crown    Below Rim
  Node                 Type      Surcharged         Meters       Meters
  ---------------------------------------------------------------------
  WS02004404           JUNCTION        0.02          0.031        2.749
  WS02006109           JUNCTION        1.83          0.399        1.421
  WS02006110           JUNCTION        0.81          0.291        1.559
  WS02006112           JUNCTION        1.03          0.100        1.580
  WS02006228           JUNCTION        1.81          0.443        1.757
  WS02006229           JUNCTION        1.86          0.505        1.945
  WS02006230           JUNCTION        0.82          0.480        1.090
  WS02006231           JUNCTION        0.96          0.493        1.037
  WS02006232           JUNCTION        1.94          0.916        0.564
  WS02006234           JUNCTION        1.30          1.163        0.077
  WS02006235           JUNCTION        1.83          1.290        0.000
  WS02006238           JUNCTION        1.90          1.380        0.050
  WS02006239           JUNCTION        1.86          1.290        0.000
  WS02006240           JUNCTION        1.88          1.151        0.239
  WS02006242           JUNCTION        1.96          0.820        0.000
  WS02006243           JUNCTION        1.90          0.770        0.000
  WS02006245           JUNCTION        1.89          0.675        0.175
  WS02006247           JUNCTION        1.91          0.646        0.114
  WS02006248           JUNCTION        1.89          0.380        0.000
  WS02006249           JUNCTION        1.89          0.390        0.000
  WS02006251           JUNCTION        1.02          0.328        0.852
  WS02006252           JUNCTION        2.28          1.100        0.000
  WS02006256           JUNCTION        6.80          2.050        0.000
  YS02001580           JUNCTION        0.77          0.450        0.000
  YS02001583           JUNCTION        0.78          0.500        0.000
  YS02001586           JUNCTION        0.91          0.510        0.000
  YS02001590           JUNCTION        0.99          0.750        0.000
  YS02001593           JUNCTION        0.99          0.704        0.136
  YS02001596           JUNCTION        1.12          0.953        0.117
  YS02001600           JUNCTION        1.28          1.190        0.000
  YS02001601           JUNCTION        1.65          1.440        0.000
  YS02001602           JUNCTION        1.53          1.270        0.000
  YS02001605           JUNCTION        1.48          1.180        0.000
  YS02001607           JUNCTION        0.97          0.646        0.034
  YS02001610           JUNCTION        1.00          0.680        0.000
  YS02001613           JUNCTION        0.97          0.668        0.032
  YS02001616           JUNCTION        0.93          0.610        0.000
  YS02001619           JUNCTION        0.91          0.610        0.000
  YS02001622           JUNCTION        0.91          0.590        0.030
  YS02001625           JUNCTION        1.09          0.780        0.000
  YS02001629           JUNCTION        0.83          0.470        0.000
  YS02001633           JUNCTION        1.12          1.060        0.000
  YS02001641           JUNCTION        1.05          0.960        0.140
  YS02001644           JUNCTION        1.01          0.920        0.000
  YS02001647           JUNCTION        0.76          0.773        0.127
  YS02001649           JUNCTION        0.87          1.027        0.023
  YS02001652           JUNCTION        0.68          0.861        0.269
  YS02001655           JUNCTION        0.50          0.714        0.486
  YS02001658           JUNCTION        0.30          0.490        0.810
  YS02001661           JUNCTION        0.10          0.214        1.176
  YS02001748           JUNCTION        0.24          0.283        0.907
  YS02001751           JUNCTION        0.38          0.530        0.670
  YS02001754           JUNCTION        0.58          0.721        0.429
  YS02001757           JUNCTION        0.92          1.109        0.101
  YS02001759           JUNCTION        0.83          1.133        0.077
  YS02001762           JUNCTION        0.81          1.067        0.083
  YS02001765           JUNCTION        0.77          1.003        0.097
  YS02001767           JUNCTION        0.74          0.966        0.064
  YS02001770           JUNCTION        0.71          0.920        0.000
  YS02001774           JUNCTION        0.79          1.007        0.043
  YS02001779           JUNCTION        0.57          0.680        0.000
  YS02001783           JUNCTION        0.65          0.460        1.140
  YS02001784           JUNCTION        0.63          0.339        1.151
  YS02001786           JUNCTION        0.50          0.091        1.339
  YS02001882           JUNCTION        0.59          0.743        0.087
  YS02001884           JUNCTION        0.60          0.767        0.103
  YS02001887           JUNCTION        0.64          0.878        0.072
  YS02001890           JUNCTION        0.66          0.760        0.000
  YS02001895           JUNCTION        0.58          0.565        0.185
  YS02001898           JUNCTION        0.57          0.535        0.205
  YS02001901           JUNCTION        0.62          0.676        0.194
  YS02001904           JUNCTION        0.62          0.642        0.208
  YS02001907           JUNCTION        0.96          0.950        0.000
  YS02001910           JUNCTION        0.69          1.031        0.069
  YS02001915           JUNCTION        0.59          1.000        0.000
  YS02001918           JUNCTION        0.49          0.682        0.128
  YS02001920           JUNCTION        0.51          0.779        0.361
  YS02001923           JUNCTION        0.17          0.373        0.447
  YS02001926           JUNCTION        0.20          0.450        0.450
  YS02001929           JUNCTION        0.07          0.372        0.408
  YS02006553           JUNCTION        0.99          1.007        0.183
  YS02006556           JUNCTION        0.81          0.974        0.376
  YS02006558           JUNCTION        0.79          1.006        0.394
  YS02006561           JUNCTION        0.45          0.133        1.017
  YS02163301           JUNCTION        1.10          0.954        0.076
  YS02163601           JUNCTION        1.15          1.060        0.020
  YS02164001           JUNCTION        1.05          0.967        0.133
  
  
  *********************
  Node Flooding Summary
  *********************
  
  Flooding refers to all water that overflows a node, whether it ponds or not.
  --------------------------------------------------------------------------
                                                             Total   Maximum
                                 Maximum   Time of Max       Flood    Ponded
                        Hours       Rate    Occurrence      Volume     Depth
  Node                 Flooded       LPS   days hr:min    10^6 ltr    Meters
  --------------------------------------------------------------------------
  WS02006235              0.01     15.09      0  02:09       0.000     0.000
  WS02006239              0.01      4.30      0  02:40       0.000     0.000
  WS02006242              0.01     23.44      0  02:40       0.000     0.000
  WS02006243              0.01      0.51      0  02:58       0.000     0.000
  WS02006248              0.01     24.87      0  03:10       0.000     0.000
  WS02006249              0.99     92.98      0  03:29       0.241     0.000
  WS02006252              0.01    245.63      0  00:00       0.000     0.000
  WS02006256              1.27    293.19      0  00:00       0.449     0.000
  YS02001580              0.01     39.46      0  02:06       0.000     0.000
  YS02001583              0.01     28.99      0  02:06       0.000     0.000
  YS02001586              0.61    700.31      0  02:26       0.619     0.000
  YS02001590              0.01      3.98      0  02:06       0.000     0.000
  YS02001600              0.01      1.36      0  02:06       0.000     0.000
  YS02001601              0.84   1667.50      0  02:25       1.895     0.000
  YS02001602              0.67     61.95      0  02:35       0.137     0.000
  YS02001605              0.01      0.29      0  02:14       0.000     0.000
  YS02001610              0.60    951.67      0  02:27       1.018     0.000
  YS02001616              0.03      1.53      0  02:26       0.000     0.000
  YS02001619              0.08    148.02      0  02:26       0.026     0.000
  YS02001625              0.55   1504.00      0  02:28       1.610     0.000
  YS02001629              0.20    225.41      0  02:25       0.063     0.000
  YS02001633              0.01      1.33      0  02:24       0.000     0.000
  YS02001644              0.27   1917.99      0  02:25       0.856     0.000
  YS02001770              0.06    213.18      0  02:25       0.024     0.000
  YS02001779              0.23    849.32      0  02:26       0.385     0.000
  YS02001890              0.24    553.42      0  02:25       0.195     0.000
  YS02001907              0.43   2708.02      0  02:25       1.940     0.000
  YS02001915              0.01      1.42      0  02:24       0.000     0.000
  
  
  **********************
  Storage Volume Summary
  **********************
  
  ------------------------------------------------------------------------------------------------
                         Average    Avg   Evap  Exfil     Maximum    Max    Time of Max    Maximum
                          Volume   Pcnt   Pcnt   Pcnt      Volume   Pcnt     Occurrence    Outflow
  Storage Unit           1000 m³   Full   Loss   Loss     1000 m³   Full    days hr:min        LPS
  ------------------------------------------------------------------------------------------------
  CC-storage               2.386   37.2    0.0    0.0       4.834   75.4       0  02:49    1783.53
  JK-storage               0.094   32.4    0.0    0.0       0.212   72.8       0  02:09    2300.00
  
  
  ***********************
  Outfall Loading Summary
  ***********************
  
  -----------------------------------------------------------
                         Flow       Avg       Max       Total
                         Freq      Flow      Flow      Volume
  Outfall Node           Pcnt       LPS       LPS    10^6 ltr
  -----------------------------------------------------------
  CC-1                  35.07    683.00    683.00       5.293
  CC-2                  27.17    683.00    683.00       3.851
  JK-1                  10.52   1000.00   1000.00       2.425
  JK-2                   4.09   1000.00   1000.00       1.048
  WSC                   99.96    260.41    556.19       5.391
  -----------------------------------------------------------
  System                35.36   3626.41   3921.23      18.007
  
  
  ********************
  Link Flow Summary
  ********************
  
  -----------------------------------------------------------------------------
                                 Maximum  Time of Max   Maximum    Max/    Max/
                                  |Flow|   Occurrence   |Veloc|    Full    Full
  Link                 Type          LPS  days hr:min     m/sec    Flow   Depth
  -----------------------------------------------------------------------------
  1                    CONDUIT    556.19     0  02:58      2.83    0.19    0.30
  WS02003060WS02003069 CONDUIT    554.43     0  02:55      1.64    0.22    0.34
  WS02003066WSF200     CONDUIT    537.90     0  02:54      2.85    0.09    0.22
  WS02003067WS02003066 CONDUIT    537.83     0  02:54      1.21    0.17    0.42
  WS02003069WS02003072 CONDUIT    554.50     0  02:58      1.37    0.27    0.39
  WS02003072WS02003073 CONDUIT    554.40     0  02:57      1.44    1.20    0.37
  WS02004401WS02004402 CONDUIT    540.05     0  02:53      0.98    0.65    0.89
  WS02004402WS02004403 CONDUIT    541.84     0  02:51      0.97    0.78    0.91
  WS02004403WS02004404 CONDUIT    560.18     0  02:49      0.92    0.40    0.96
  WS02004404WS02004405 CONDUIT    607.96     0  02:51      1.08    5.96    0.98
  WS02004405WS02004406 CONDUIT    544.55     0  02:36      0.99    1.07    0.96
  WS02004406WS02004407 CONDUIT    540.05     0  02:51      1.04    0.24    0.63
  WS02004407WS02004409 CONDUIT    539.67     0  02:51      1.48    0.19    0.48
  WS02004409WS02004410 CONDUIT    538.75     0  02:51      0.97    0.70    0.68
  WS02004410WS02004411 CONDUIT    538.26     0  02:56      0.94    0.74    0.69
  WS02004411WS02004412 CONDUIT    538.09     0  02:57      0.92    0.76    0.69
  WS02004412WS02004413 CONDUIT    538.06     0  02:54      0.82    0.36    0.78
  WS02004413WS02003067 CONDUIT    537.80     0  02:57      1.11    0.23    0.59
  WS02006109WS02006110 CONDUIT    575.60     0  02:58      1.15    1.11    1.00
  WS02006110WS02006113 CONDUIT    574.20     0  02:41      1.39    0.52    0.79
  WS02006111WS02006112 CONDUIT    543.67     0  03:20      1.81    0.26    0.67
  WS02006112WS02006115 CONDUIT    551.11     0  02:41      0.78    0.33    0.88
  WS02006113WS02006111 CONDUIT    560.62     0  03:05      2.47    0.67    0.46
  WS02006115WS02006116 CONDUIT    538.88     0  02:53      0.97    0.69    0.78
  WS02006116WS02004401 CONDUIT    539.54     0  02:54      0.98    0.74    0.87
  WS02006228WS02006109 CONDUIT    569.71     0  02:58      1.13    2.49    1.00
  WS02006229WS02006228 CONDUIT    564.01     0  02:58      1.14    1.87    1.00
  WS02006230WS02006229 CONDUIT    562.43     0  02:58      1.46   12.52    1.00
  WS02006231WS02006230 CONDUIT    587.64     0  02:58      1.58    8.91    1.00
  WS02006232WS02006231 CONDUIT    596.12     0  02:58      1.57    1.25    1.00
  WS02006234WS02006232 CONDUIT    594.54     0  02:58      1.54    1.20    1.00
  WS02006235WS02006234 CONDUIT    591.18     0  02:58      1.64    6.24    1.00
  WS02006238WS02006235 CONDUIT    423.73     0  03:00      1.45    0.95    1.00
  WS02006239WS02006238 CONDUIT    424.64     0  02:55      1.10    1.36    1.00
  WS02006240WS02006239 CONDUIT    423.79     0  02:55      1.24    1.33    1.00
  WS02006242WS02006240 CONDUIT    420.98     0  02:55      1.13    1.67    1.00
  WS02006243WS02006242 CONDUIT    421.16     0  02:55      1.40    0.90    1.00
  WS02006245WS02006243 CONDUIT    420.95     0  02:06      1.45    1.25    1.00
  WS02006247WS02006245 CONDUIT    420.39     0  02:06      1.43    3.33    1.00
  WS02006248WS02006247 CONDUIT    419.89     0  02:06      1.44    0.91    1.00
  WS02006249WS02006248 CONDUIT    420.11     0  02:35      1.37    2.30    1.00
  WS02006251WS02006249 CONDUIT    474.91     0  02:00      1.99    1.37    1.00
  WS02006252WS02006251 CONDUIT    407.89     0  03:24     26.51    1.50    1.00
  WS02006256WS02006235 CONDUIT    288.91     0  00:00      4.23    3.06    1.00
  WSF200WS02003060     CONDUIT    538.27     0  02:55      2.06    0.12    0.28
  YS02001580YS02001583 CONDUIT     60.83     0  02:05      0.46    0.24    1.00
  YS02001583YS02001586 CONDUIT    100.03     0  02:05      0.41    0.15    1.00
  YS02001586YS02001590 CONDUIT    318.03     0  02:33      1.24    0.56    1.00
  YS02001590YS02001593 CONDUIT    318.08     0  02:16      1.12    2.00    1.00
  YS02001593YS02001596 CONDUIT    318.02     0  02:16      1.75    0.50    1.00
  YS02001596YS02001600 CONDUIT    318.03     0  02:24      1.29    0.62    1.00
  YS02001600YS02001601 CONDUIT    318.01     0  02:16      1.12    0.55    1.00
  YS02001601YS02001602 CONDUIT    493.62     0  02:05      1.75    1.78    1.00
  YS02001602YS02001605 CONDUIT    493.15     0  02:05      1.74   10.44    1.00
  YS02001605YS02001607 CONDUIT    492.53     0  02:05      1.74    2.70    1.00
  YS02001607YS02001610 CONDUIT    492.61     0  02:05      0.63    0.47    1.00
  YS02001610YS02001613 CONDUIT    615.64     0  02:27      0.78    0.71    1.00
  YS02001613YS02001616 CONDUIT    616.18     0  02:27      0.78    0.53    1.00
  YS02001616YS02001619 CONDUIT    615.93     0  02:27      0.78    1.07    1.00
  YS02001619YS02001622 CONDUIT   1053.84     0  02:27      1.34    1.55    1.00
  YS02001622YS02001625 CONDUIT   1053.63     0  02:27      1.34    0.56    1.00
  YS02001625YS02001629 CONDUIT    935.19     0  02:12      1.19    0.44    1.00
  YS02001629YS02163301 CONDUIT    933.90     0  02:12      1.19    1.15    1.00
  YS02001633YS02163601 CONDUIT   1353.65     0  02:12      1.72    1.42    1.00
  YS02001641YS02001644 CONDUIT   1354.37     0  02:12      1.72    4.38    1.00
  YS02001644YS02001647 CONDUIT   1727.60     0  02:12      2.21    1.01    1.00
  YS02001647YS02001649 CONDUIT   1736.20     0  02:12      2.31    0.92    1.00
  YS02001649YS02001757 CONDUIT   1977.42     0  02:15      2.52    1.20    1.00
  YS02001652YS02001649 CONDUIT   1172.06     0  02:25      1.49    0.58    1.00
  YS02001655YS02001652 CONDUIT   1172.01     0  02:25      1.49    0.57    1.00
  YS02001658YS02001655 CONDUIT   1171.14     0  02:25      1.81    0.50    1.00
  YS02001661YS02001658 CONDUIT   1171.51     0  02:25      2.23    0.46    1.00
  YS02001664YS02001661 CONDUIT   1170.47     0  02:25      2.21    0.37    0.89
  YS02001745YS02001748 CONDUIT    724.94     0  02:25      2.07    0.28    0.97
  YS02001748YS02001751 CONDUIT    726.13     0  02:25      1.62    0.37    1.00
  YS02001751YS02001754 CONDUIT    726.11     0  02:25      1.37    0.35    1.00
  YS02001754YS02001757 CONDUIT    726.77     0  02:25      0.93    0.29    1.00
  YS02001757CaochengTiaoxuchi CONDUIT   3272.55     0  02:19      4.17    1.42    1.00
  YS02001759YS02001757 CONDUIT   1385.83     0  02:24      1.76    0.98    1.00
  YS02001762YS02001759 CONDUIT    739.90     0  02:19      0.94    0.85    1.00
  YS02001765YS02001762 CONDUIT    740.92     0  02:19      0.94    0.69    1.00
  YS02001767YS02001765 CONDUIT    741.00     0  02:19      0.94    0.93    1.00
  YS02001770YS02001767 CONDUIT    740.39     0  02:19      0.94    2.93    1.00
  YS02001774YS02001770 CONDUIT    849.38     0  02:26      1.08    0.54    1.00
  YS02001779YS02001774 CONDUIT    849.60     0  02:26      1.08    0.43    1.00
  YS02001783YS02001784 CONDUIT   1170.45     0  02:24      2.33    1.61    1.00
  YS02001784YS02001785 CONDUIT   1171.45     0  02:24      2.33    2.73    1.00
  YS02001786YS02001788 CONDUIT   1172.57     0  02:24      2.49    2.26    0.89
  YS02001788YS02001790 CONDUIT   1175.15     0  02:22      2.71    0.87    0.85
  YS02001790YS02001791 CONDUIT   1303.32     0  02:24      3.45    1.42    0.71
  YS02001791YS02001793 CONDUIT   1257.42     0  02:20      6.77    0.54    0.45
  YS02001793JiankangQianchi CONDUIT   1283.10     0  02:17      2.56    0.10    0.65
  YS02001882YS02001884 CONDUIT     29.51     0  02:10      0.15    0.03    1.00
  YS02001884YS02001887 CONDUIT     37.39     0  02:09      0.11    0.05    1.00
  YS02001887YS02001890 CONDUIT   1069.76     0  02:25      1.36    1.83    1.00
  YS02001890YS02001895 CONDUIT    518.17     0  02:24      0.66    0.24    1.00
  YS02001895YS02001898 CONDUIT    517.65     0  02:26      0.66    0.90    1.00
  YS02001898YS02001901 CONDUIT    517.52     0  02:29      0.66    0.33    1.00
  YS02001901YS02001904 CONDUIT    517.95     0  02:24      0.66    0.80    1.00
  YS02001904YS02001907 CONDUIT    519.21     0  02:24      0.66    0.18    1.00
  YS02001907YS02006553 CONDUIT    805.92     0  02:40      0.90    0.95    1.00
  YS02001910YS02001907 CONDUIT   1893.51     0  02:25      2.41    1.07    1.00
  YS02001915YS02001910 CONDUIT   1892.83     0  02:25      2.41    0.94    1.00
  YS02001918YS02001915 CONDUIT    628.37     0  02:25      0.80    0.35    1.00
  YS02001920YS02001918 CONDUIT    627.27     0  02:25      0.80    0.61    1.00
  YS02001923YS02001920 CONDUIT    623.89     0  02:25      0.79    0.28    1.00
  YS02001926YS02001923 CONDUIT    621.57     0  02:25      0.94    0.89    1.00
  YS02001929YS02001926 CONDUIT    620.22     0  02:25      1.06    0.29    1.00
  YS02006553YS02006556 CONDUIT    806.11     0  02:40      1.03    0.69    1.00
  YS02006556YS02006558 CONDUIT    807.53     0  02:40      1.03    0.64    1.00
  YS02006558YS02006561 CONDUIT   1169.96     0  02:24      4.14    2.59    1.00
  YS02006561YS02001783 CONDUIT   1170.92     0  02:24      2.33    0.61    1.00
  YS02163301YS02001633 CONDUIT    934.84     0  02:12      1.19    0.88    1.00
  YS02163601YS02164001 CONDUIT   1353.98     0  02:12      1.72    1.20    1.00
  YS02164001YS02001641 CONDUIT   1355.18     0  02:12      1.73    1.85    1.00
  CC-R1                PUMP       683.00     0  00:00              1.00
  CC-R2                PUMP       683.00     0  00:00              1.00
  CC-S1                PUMP       200.00     0  00:00              1.00
  CC-S2                PUMP       200.00     0  00:00              1.00
  JK-R1                PUMP      1000.00     0  00:00              1.00
  JK-R2                PUMP      1000.00     0  00:00              1.00
  JK-S                 PUMP       300.00     0  00:00              1.00
  
  
  ***************************
  Flow Classification Summary
  ***************************
  
  -------------------------------------------------------------------------------------
                      Adjusted    ---------- Fraction of Time in Flow Class ---------- 
                       /Actual         Up    Down  Sub   Sup   Up    Down  Norm  Inlet 
  Conduit               Length    Dry  Dry   Dry   Crit  Crit  Crit  Crit  Ltd   Ctrl  
  -------------------------------------------------------------------------------------
  1                       1.00   0.00  0.00  0.00  0.00  1.00  0.00  0.00  0.43  0.00
  WS02003060WS02003069    1.00   0.00  0.00  0.00  0.98  0.02  0.00  0.00  0.70  0.00
  WS02003066WSF200        1.00   0.13  0.00  0.00  0.00  0.87  0.00  0.00  0.75  0.00
  WS02003067WS02003066    1.00   0.10  0.02  0.00  0.88  0.00  0.00  0.00  0.00  0.00
  WS02003069WS02003072    1.00   0.00  0.00  0.00  0.99  0.01  0.00  0.00  0.74  0.00
  WS02003072WS02003073    1.00   0.00  0.00  0.00  0.00  0.00  0.00  1.00  0.00  0.00
  WS02004401WS02004402    1.00   0.02  0.00  0.00  0.98  0.00  0.00  0.00  0.00  0.00
  WS02004402WS02004403    1.00   0.02  0.00  0.00  0.97  0.00  0.00  0.00  0.00  0.00
  WS02004403WS02004404    1.00   0.00  0.03  0.00  0.97  0.00  0.00  0.00  0.00  0.00
  WS02004404WS02004405    1.00   0.00  0.00  0.00  1.00  0.00  0.00  0.00  0.01  0.00
  WS02004405WS02004406    1.00   0.00  0.00  0.00  1.00  0.00  0.00  0.00  0.00  0.00
  WS02004406WS02004407    1.00   0.00  0.05  0.00  0.95  0.00  0.00  0.00  0.00  0.00
  WS02004407WS02004409    1.00   0.05  0.00  0.00  0.94  0.01  0.00  0.00  0.94  0.00
  WS02004409WS02004410    1.00   0.05  0.00  0.00  0.95  0.00  0.00  0.00  0.03  0.00
  WS02004410WS02004411    1.00   0.05  0.00  0.00  0.95  0.00  0.00  0.00  0.01  0.00
  WS02004411WS02004412    1.00   0.05  0.00  0.00  0.95  0.00  0.00  0.00  0.00  0.00
  WS02004412WS02004413    1.00   0.05  0.00  0.00  0.94  0.00  0.00  0.00  0.01  0.00
  WS02004413WS02003067    1.00   0.06  0.04  0.00  0.00  0.00  0.90  0.00  0.00  0.00
  WS02006109WS02006110    1.00   0.00  0.01  0.00  0.98  0.00  0.01  0.00  0.00  0.00
  WS02006110WS02006113    1.00   0.01  0.01  0.00  0.98  0.00  0.00  0.00  0.00  0.00
  WS02006111WS02006112    1.00   0.02  0.00  0.00  0.98  0.00  0.00  0.00  0.98  0.00
  WS02006112WS02006115    1.00   0.02  0.00  0.00  0.97  0.00  0.00  0.00  0.00  0.00
  WS02006113WS02006111    1.00   0.02  0.00  0.00  0.00  0.98  0.00  0.00  0.14  0.00
  WS02006115WS02006116    1.00   0.02  0.00  0.00  0.97  0.00  0.00  0.01  0.00  0.00
  WS02006116WS02004401    1.00   0.02  0.00  0.00  0.98  0.00  0.00  0.00  0.00  0.00
  WS02006228WS02006109    1.00   0.00  0.00  0.00  1.00  0.00  0.00  0.00  0.00  0.00
  WS02006229WS02006228    1.00   0.00  0.00  0.00  0.99  0.00  0.00  0.01  0.00  0.00
  WS02006230WS02006229    1.00   0.00  0.00  0.00  0.99  0.00  0.00  0.01  0.03  0.00
  WS02006231WS02006230    1.00   0.00  0.00  0.00  0.26  0.00  0.74  0.00  0.00  0.00
  WS02006232WS02006231    1.00   0.00  0.00  0.00  0.99  0.00  0.01  0.00  0.00  0.00
  WS02006234WS02006232    1.00   0.00  0.00  0.00  1.00  0.00  0.00  0.00  0.05  0.00
  WS02006235WS02006234    1.00   0.00  0.00  0.00  0.91  0.00  0.09  0.00  0.00  0.00
  WS02006238WS02006235    1.00   0.00  0.00  0.00  1.00  0.00  0.00  0.00  0.00  0.00
  WS02006239WS02006238    1.00   0.00  0.00  0.00  1.00  0.00  0.00  0.00  0.16  0.00
  WS02006240WS02006239    1.00   0.00  0.00  0.00  0.69  0.00  0.00  0.31  0.05  0.00
  WS02006242WS02006240    1.00   0.00  0.00  0.00  0.99  0.00  0.01  0.00  0.00  0.00
  WS02006243WS02006242    1.00   0.00  0.00  0.00  0.99  0.00  0.00  0.01  0.51  0.00
  WS02006245WS02006243    1.00   0.00  0.00  0.00  0.76  0.00  0.00  0.24  0.01  0.00
  WS02006247WS02006245    1.00   0.00  0.00  0.00  0.96  0.00  0.00  0.04  0.00  0.00
  WS02006248WS02006247    1.00   0.00  0.00  0.00  0.98  0.00  0.00  0.02  0.38  0.00
  WS02006249WS02006248    1.00   0.00  0.00  0.00  0.50  0.00  0.50  0.00  0.00  0.00
  WS02006251WS02006249    1.00   0.00  0.00  0.00  0.99  0.01  0.00  0.00  0.51  0.00
  WS02006252WS02006251    1.00   0.00  0.46  0.00  0.13  0.00  0.41  0.00  0.01  0.00
  WS02006256WS02006235    1.00   0.00  0.00  0.00  0.99  0.01  0.00  0.00  0.00  0.00
  WSF200WS02003060        1.00   0.00  0.13  0.00  0.34  0.53  0.00  0.00  0.52  0.00
  YS02001580YS02001583    1.00   0.26  0.53  0.00  0.22  0.00  0.00  0.00  0.62  0.00
  YS02001583YS02001586    1.00   0.40  0.33  0.00  0.27  0.00  0.00  0.00  0.62  0.00
  YS02001586YS02001590    1.00   0.13  0.00  0.00  0.47  0.04  0.00  0.37  0.38  0.00
  YS02001590YS02001593    1.00   0.13  0.01  0.00  0.14  0.00  0.73  0.00  0.00  0.00
  YS02001593YS02001596    1.00   0.13  0.00  0.00  0.16  0.01  0.00  0.70  0.02  0.00
  YS02001596YS02001600    1.00   0.13  0.00  0.00  0.23  0.01  0.00  0.63  0.05  0.00
  YS02001600YS02001601    1.00   0.13  0.01  0.00  0.86  0.00  0.00  0.00  0.58  0.00
  YS02001601YS02001602    1.00   0.13  0.01  0.00  0.87  0.00  0.00  0.00  0.00  0.00
  YS02001602YS02001605    1.00   0.13  0.00  0.00  0.87  0.00  0.00  0.00  0.00  0.00
  YS02001605YS02001607    1.00   0.13  0.00  0.00  0.87  0.00  0.00  0.00  0.00  0.00
  YS02001607YS02001610    1.00   0.13  0.01  0.00  0.86  0.00  0.00  0.00  0.01  0.00
  YS02001610YS02001613    1.00   0.13  0.00  0.00  0.87  0.00  0.00  0.00  0.00  0.00
  YS02001613YS02001616    1.00   0.13  0.00  0.00  0.87  0.00  0.00  0.00  0.00  0.00
  YS02001616YS02001619    1.00   0.13  0.00  0.00  0.87  0.00  0.00  0.00  0.00  0.00
  YS02001619YS02001622    1.00   0.13  0.00  0.00  0.87  0.00  0.00  0.00  0.26  0.00
  YS02001622YS02001625    1.00   0.13  0.00  0.00  0.87  0.00  0.00  0.00  0.03  0.00
  YS02001625YS02001629    1.00   0.13  0.04  0.00  0.19  0.00  0.64  0.00  0.00  0.00
  YS02001629YS02163301    1.00   0.15  0.01  0.00  0.84  0.00  0.00  0.00  0.00  0.00
  YS02001633YS02163601    1.00   0.00  0.01  0.00  0.99  0.00  0.00  0.00  0.14  0.00
  YS02001641YS02001644    1.00   0.00  0.01  0.00  0.99  0.00  0.00  0.00  0.00  0.00
  YS02001644YS02001647    1.00   0.00  0.16  0.00  0.84  0.00  0.00  0.00  0.00  0.00
  YS02001647YS02001649    1.00   0.00  0.16  0.00  0.55  0.29  0.00  0.00  0.54  0.00
  YS02001649YS02001757    1.00   0.00  0.00  0.00  0.73  0.27  0.00  0.00  0.35  0.00
  YS02001652YS02001649    1.00   0.00  0.00  0.00  0.97  0.03  0.00  0.00  0.71  0.00
  YS02001655YS02001652    1.00   0.00  0.00  0.00  0.22  0.01  0.00  0.76  0.07  0.00
  YS02001658YS02001655    1.00   0.00  0.14  0.00  0.67  0.19  0.00  0.00  0.67  0.00
  YS02001661YS02001658    1.00   0.14  0.00  0.00  0.51  0.36  0.00  0.00  0.68  0.00
  YS02001664YS02001661    1.00   0.13  0.00  0.00  0.76  0.12  0.00  0.00  0.85  0.00
  YS02001745YS02001748    1.00   0.00  0.00  0.00  0.11  0.00  0.00  0.88  0.04  0.00
  YS02001748YS02001751    1.00   0.00  0.00  0.00  0.83  0.17  0.00  0.00  0.73  0.00
  YS02001751YS02001754    1.00   0.00  0.00  0.00  0.19  0.01  0.00  0.80  0.05  0.00
  YS02001754YS02001757    1.00   0.00  0.00  0.00  1.00  0.00  0.00  0.00  0.78  0.00
  YS02001757CaochengTiaoxuchi    1.00   0.00  0.00  0.00  0.95  0.05  0.00  0.00  0.67  0.00
  YS02001759YS02001757    1.00   0.00  0.00  0.00  0.99  0.01  0.00  0.00  0.55  0.00
  YS02001762YS02001759    1.00   0.00  0.00  0.00  1.00  0.00  0.00  0.00  0.04  0.00
  YS02001765YS02001762    1.00   0.00  0.00  0.00  1.00  0.00  0.00  0.00  0.66  0.00
  YS02001767YS02001765    1.00   0.00  0.00  0.00  1.00  0.00  0.00  0.00  0.00  0.00
  YS02001770YS02001767    1.00   0.00  0.00  0.00  1.00  0.00  0.00  0.00  0.00  0.00
  YS02001774YS02001770    1.00   0.00  0.13  0.00  0.71  0.00  0.16  0.00  0.02  0.00
  YS02001779YS02001774    1.00   0.00  0.00  0.00  1.00  0.00  0.00  0.00  0.72  0.00
  YS02001783YS02001784    1.00   0.00  0.17  0.00  0.83  0.00  0.00  0.00  0.54  0.00
  YS02001784YS02001785    1.00   0.00  0.00  0.00  1.00  0.00  0.00  0.00  0.16  0.00
  YS02001786YS02001788    1.00   0.00  0.00  0.00  0.78  0.22  0.00  0.00  0.00  0.00
  YS02001788YS02001790    1.00   0.00  0.00  0.00  0.22  0.78  0.00  0.00  0.78  0.00
  YS02001790YS02001791    1.00   0.00  0.00  0.00  0.01  0.99  0.00  0.00  0.17  0.00
  YS02001791YS02001793    1.00   0.00  0.00  0.00  0.00  1.00  0.00  0.00  0.01  0.00
  YS02001793JiankangQianchi    1.00   0.00  0.00  0.00  0.95  0.05  0.00  0.00  0.97  0.00
  YS02001882YS02001884    1.00   0.15  0.01  0.00  0.85  0.00  0.00  0.00  0.00  0.00
  YS02001884YS02001887    1.00   0.06  0.05  0.00  0.89  0.00  0.00  0.00  0.00  0.00
  YS02001887YS02001890    1.00   0.00  0.00  0.00  0.97  0.00  0.03  0.00  0.00  0.00
  YS02001890YS02001895    1.00   0.00  0.15  0.00  0.84  0.00  0.00  0.00  0.00  0.00
  YS02001895YS02001898    1.00   0.16  0.00  0.00  0.83  0.00  0.02  0.00  0.00  0.00
  YS02001898YS02001901    1.00   0.16  0.00  0.00  0.84  0.00  0.00  0.00  0.01  0.00
  YS02001901YS02001904    1.00   0.16  0.00  0.00  0.84  0.00  0.00  0.00  0.00  0.00
  YS02001904YS02001907    1.00   0.00  0.16  0.00  0.84  0.00  0.00  0.00  0.00  0.00
  YS02001907YS02006553    1.00   0.00  0.02  0.00  0.98  0.00  0.00  0.00  0.00  0.00
  YS02001910YS02001907    1.00   0.00  0.00  0.00  0.97  0.00  0.00  0.03  0.12  0.00
  YS02001915YS02001910    1.00   0.00  0.00  0.00  0.97  0.03  0.00  0.00  0.14  0.00
  YS02001918YS02001915    1.00   0.00  0.01  0.00  0.98  0.02  0.00  0.00  0.72  0.00
  YS02001920YS02001918    1.00   0.00  0.01  0.00  0.99  0.00  0.00  0.00  0.00  0.00
  YS02001923YS02001920    1.00   0.00  0.00  0.00  1.00  0.00  0.00  0.00  0.91  0.00
  YS02001926YS02001923    1.00   0.00  0.07  0.00  0.07  0.00  0.85  0.00  0.00  0.00
  YS02001929YS02001926    1.00   0.00  0.13  0.00  0.87  0.00  0.00  0.00  0.81  0.00
  YS02006553YS02006556    1.00   0.01  0.00  0.00  0.99  0.00  0.00  0.00  0.03  0.00
  YS02006556YS02006558    1.00   0.00  0.00  0.00  1.00  0.00  0.00  0.00  0.00  0.00
  YS02006558YS02006561    1.00   0.17  0.00  0.00  0.07  0.76  0.00  0.00  0.18  0.00
  YS02006561YS02001783    1.00   0.17  0.00  0.00  0.11  0.72  0.00  0.00  0.66  0.00
  YS02163301YS02001633    1.00   0.00  0.15  0.00  0.85  0.00  0.00  0.00  0.00  0.00
  YS02163601YS02164001    1.00   0.00  0.08  0.00  0.92  0.00  0.00  0.00  0.00  0.00
  YS02164001YS02001641    1.00   0.01  0.07  0.00  0.92  0.00  0.00  0.00  0.05  0.00
  
  
  *************************
  Conduit Surcharge Summary
  *************************
  
  ----------------------------------------------------------------------------
                                                           Hours        Hours 
                         --------- Hours Full --------   Above Full   Capacity
  Conduit                Both Ends  Upstream  Dnstream   Normal Flow   Limited
  ----------------------------------------------------------------------------
  WS02003072WS02003073        0.01      0.01      0.01      1.47         0.01
  WS02004403WS02004404        0.01      0.01      0.01      0.01         0.01
  WS02004404WS02004405        0.01      0.01      0.01      3.44         0.01
  WS02004405WS02004406        0.01      0.01      0.01      0.75         0.01
  WS02006109WS02006110        0.81      0.81      1.93      0.94         0.01
  WS02006110WS02006113        0.01      0.01      1.90      0.01         0.01
  WS02006111WS02006112        0.01      0.01      2.20      0.01         0.01
  WS02006112WS02006115        0.01      0.01      1.02      0.01         0.01
  WS02006228WS02006109        1.83      1.93      1.83      2.35         1.83
  WS02006229WS02006228        1.81      1.86      1.81      2.14         1.79
  WS02006230WS02006229        2.00      2.11      2.00      4.21         2.00
  WS02006231WS02006230        0.82      0.82      1.01      3.76         0.01
  WS02006232WS02006231        0.96      0.96      1.94      1.02         0.01
  WS02006234WS02006232        1.73      1.73      1.94      1.01         1.00
  WS02006235WS02006234        1.29      1.29      1.83      3.53         0.02
  WS02006238WS02006235        1.86      1.86      1.96      0.01         0.01
  WS02006239WS02006238        1.90      1.94      1.90      2.06         1.70
  WS02006240WS02006239        1.85      1.90      1.85      2.05         1.54
  WS02006242WS02006240        1.88      1.88      1.99      2.21         0.01
  WS02006243WS02006242        1.92      1.92      1.96      0.01         0.05
  WS02006245WS02006243        1.89      1.90      1.90      1.21         1.14
  WS02006247WS02006245        1.89      1.92      1.89      3.23         1.88
  WS02006248WS02006247        1.89      1.89      1.91      0.01         0.05
  WS02006249WS02006248        1.89      1.89      1.89      3.17         0.01
  WS02006251WS02006249        1.89      1.89      1.89      2.18         1.82
  WS02006252WS02006251        2.26      2.26      2.27      2.26         0.01
  WS02006256WS02006235        3.56      3.61      6.73      1.30         0.01
  YS02001580YS02001583        0.77      0.77      0.83      0.01         0.01
  YS02001583YS02001586        0.78      0.78      0.91      0.01         0.01
  YS02001586YS02001590        0.92      0.92      0.99      0.01         0.01
  YS02001590YS02001593        0.99      0.99      1.02      0.99         0.01
  YS02001593YS02001596        1.01      1.01      1.12      0.01         0.01
  YS02001596YS02001600        1.18      1.18      1.28      0.01         0.01
  YS02001600YS02001601        1.35      1.35      1.65      0.01         0.01
  YS02001601YS02001602        1.53      1.53      1.69      1.30         0.01
  YS02001602YS02001605        1.48      1.48      1.53      2.52         0.01
  YS02001605YS02001607        1.43      1.48      1.43      1.60         1.43
  YS02001607YS02001610        0.97      0.97      1.00      0.01         0.01
  YS02001610YS02001613        0.97      0.97      1.00      0.01         0.01
  YS02001613YS02001616        0.93      0.93      0.97      0.01         0.01
  YS02001616YS02001619        0.91      0.91      0.93      0.07         0.09
  YS02001619YS02001622        0.91      0.91      0.91      1.00         0.88
  YS02001622YS02001625        0.91      0.91      1.09      0.01         0.01
  YS02001625YS02001629        0.83      0.83      1.09      0.01         0.01
  YS02001629YS02163301        1.09      1.09      1.10      0.24         0.25
  YS02001633YS02163601        1.12      1.12      1.15      0.44         0.41
  YS02001641YS02001644        1.01      1.05      1.01      1.73         0.99
  YS02001644YS02001647        0.76      0.76      1.01      0.03         0.01
  YS02001647YS02001649        0.76      0.76      0.87      0.01         0.01
  YS02001649YS02001757        0.86      0.87      0.92      0.19         0.09
  YS02001652YS02001649        0.70      0.70      0.87      0.01         0.01
  YS02001655YS02001652        0.50      0.50      0.68      0.01         0.01
  YS02001658YS02001655        0.30      0.30      0.50      0.01         0.01
  YS02001661YS02001658        0.10      0.10      0.30      0.01         0.01
  YS02001664YS02001661        0.01      0.01      0.14      0.01         0.01
  YS02001745YS02001748        0.01      0.01      0.24      0.01         0.01
  YS02001748YS02001751        0.28      0.28      0.37      0.01         0.01
  YS02001751YS02001754        0.37      0.37      0.58      0.01         0.01
  YS02001754YS02001757        0.62      0.62      0.92      0.01         0.01
  YS02001757CaochengTiaoxuchi        0.85      0.92      1.52      0.49         0.35
  YS02001759YS02001757        0.83      0.83      0.92      0.01         0.02
  YS02001762YS02001759        0.81      0.81      0.83      0.01         0.02
  YS02001765YS02001762        0.77      0.77      0.81      0.01         0.01
  YS02001767YS02001765        0.74      0.74      0.77      0.01         0.02
  YS02001770YS02001767        0.73      0.73      0.74      0.67         0.50
  YS02001774YS02001770        0.71      0.71      0.79      0.01         0.01
  YS02001779YS02001774        0.57      0.57      0.79      0.01         0.01
  YS02001783YS02001784        0.63      0.65      0.63      0.86         0.63
  YS02001784YS02001785        0.50      0.63      0.50      1.17         0.50
  YS02001786YS02001788        0.01      0.50      0.01      1.01         0.01
  YS02001790YS02001791        0.01      0.01      0.01      0.61         0.01
  YS02001793JiankangQianchi        0.01      0.01      7.35      0.01         0.01
  YS02001882YS02001884        0.59      0.59      0.60      0.01         0.01
  YS02001884YS02001887        0.63      0.63      0.64      0.01         0.01
  YS02001887YS02001890        0.66      0.66      0.67      0.17         0.01
  YS02001890YS02001895        0.58      0.58      0.70      0.01         0.01
  YS02001895YS02001898        0.57      0.57      0.58      0.01         0.01
  YS02001898YS02001901        0.58      0.58      0.62      0.01         0.01
  YS02001901YS02001904        0.62      0.62      0.62      0.01         0.01
  YS02001904YS02001907        0.62      0.62      0.99      0.01         0.01
  YS02001907YS02006553        1.18      1.18      1.25      0.01         0.01
  YS02001910YS02001907        0.69      0.69      0.96      0.05         0.05
  YS02001915YS02001910        0.59      0.59      0.69      0.01         0.01
  YS02001918YS02001915        0.49      0.49      0.59      0.01         0.01
  YS02001920YS02001918        0.49      0.49      0.51      0.01         0.01
  YS02001923YS02001920        0.44      0.44      0.51      0.01         0.01
  YS02001926YS02001923        0.17      0.17      0.20      0.01         0.01
  YS02001929YS02001926        0.07      0.07      0.20      0.01         0.01
  YS02006553YS02006556        0.81      0.81      0.99      0.01         0.01
  YS02006556YS02006558        0.90      0.90      1.01      0.01         0.01
  YS02006558YS02006561        0.53      0.79      0.53      1.11         0.53
  YS02006561YS02001783        0.45      0.45      0.65      0.01         0.01
  YS02163301YS02001633        1.10      1.10      1.14      0.01         0.01
  YS02163601YS02164001        1.05      1.05      1.15      0.16         0.01
  YS02164001YS02001641        1.05      1.05      1.05      0.81         0.72
  
  
  ***************
  Pumping Summary
  ***************
  
  ---------------------------------------------------------------------------------------------------------
                                                  Min       Avg       Max     Total     Power    % Time Off
                        Percent   Number of      Flow      Flow      Flow    Volume     Usage    Pump Curve
  Pump                 Utilized   Start-Ups       LPS       LPS       LPS  10^6 ltr     Kw-hr    Low   High
  ---------------------------------------------------------------------------------------------------------
  CC-R1                   26.94          15      0.00    683.00    683.00     5.298     96.82    0.0   33.4
  CC-R2                   19.63          18      0.00    683.00    683.00     3.862     70.40    0.0   41.6
  CC-S1                   37.57          12      0.00    200.00    200.00     2.164     12.82    0.0    0.0
  CC-S2                   32.21          15      0.00    200.00    200.00     1.856     11.13    0.0    0.0
  JK-R1                    8.42          11      0.00   1000.00   1000.00     2.425     25.44    0.0    0.0
  JK-R2                    3.63           9      0.00   1000.00   1000.00     1.046      8.28    0.0    0.0
  JK-S                    15.89          27      0.00    300.00    300.00     1.372     20.53    0.0    0.0
  

  Analysis begun on:  Wed Dec 25 13:04:40 2024
  Analysis ended on:  Wed Dec 25 13:04:42 2024
  Total elapsed time: 00:00:02