
  EPA STORM WATER MANAGEMENT MODEL - VERSION 5.2 (Build 5.2.4)
  PYSWMM TOOLKIT API - VERSION v1.0 (2023-11-27)
  ------------------------------------------------------------

  WARNING 04: minimum elevation drop used for Conduit WS02004404WS02004405
  WARNING 03: negative offset ignored for Link YS02001904YS02001907
  
  ****************
  Analysis Options
  ****************
  Flow Units ............... LPS
  Process Models:
    Rainfall/Runoff ........ YES
    RDII ................... NO
    Snowmelt ............... NO
    Groundwater ............ NO
    Flow Routing ........... YES
    Ponding Allowed ........ NO
    Water Quality .......... NO
  Infiltration Method ...... HORTON
  Flow Routing Method ...... DYNWAVE
  Surcharge Method ......... EXTRAN
  Starting Date ............ 08/28/2015 08:00:00
  Ending Date .............. 08/28/2015 16:00:00
  Antecedent Dry Days ...... 8.0
  Report Time Step ......... 00:01:00
  Wet Time Step ............ 00:01:00
  Dry Time Step ............ 00:01:00
  Routing Time Step ........ 30.00 sec
  Variable Time Step ....... YES
  Maximum Trials ........... 8
  Number of Threads ........ 4
  Head Tolerance ........... 0.001500 m
  
  
  **************************        Volume         Depth
  Runoff Quantity Continuity     hectare-m            mm
  **************************     ---------       -------
  Total Precipitation ......         3.574       107.739
  Evaporation Loss .........         0.000         0.000
  Infiltration Loss ........         0.106         3.182
  Surface Runoff ...........         3.436       103.582
  Final Storage ............         0.033         0.997
  Continuity Error (%) .....        -0.019
  
  
  **************************        Volume        Volume
  Flow Routing Continuity        hectare-m      10^6 ltr
  **************************     ---------     ---------
  Dry Weather Inflow .......         0.025         0.251
  Wet Weather Inflow .......         3.436        34.358
  Groundwater Inflow .......         0.000         0.000
  RDII Inflow ..............         0.000         0.000
  External Inflow ..........         0.083         0.834
  External Outflow .........         2.031        20.315
  Flooding Loss ............         1.581        15.814
  Evaporation Loss .........         0.000         0.000
  Exfiltration Loss ........         0.000         0.000
  Initial Stored Volume ....         0.243         2.431
  Final Stored Volume ......         0.183         1.825
  Continuity Error (%) .....        -0.214
  
  
  *************************
  Highest Continuity Errors
  *************************
  Node YS02001884 (5.11%)
  Node YS02001583 (-4.14%)
  Node WS02006256 (-1.49%)
  
  
  ***************************
  Time-Step Critical Elements
  ***************************
  Link WS02006252WS02006251 (37.38%)
  Link WS02004404WS02004405 (15.81%)
  Link WS02006238WS02006235 (14.73%)
  Link YS02001791YS02001793 (9.74%)
  Link WS02006235WS02006234 (8.61%)
  
  
  ********************************
  Highest Flow Instability Indexes
  ********************************
  Link WS02006113WS02006111 (47)
  Link WS02006111WS02006112 (27)
  Link WS02006238WS02006235 (26)
  Link WS02004404WS02004405 (23)
  Link WS02006252WS02006251 (23)
  
  
  *********************************
  Most Frequent Nonconverging Nodes
  *********************************
  Node CC-1 (13.24%)
  Node CC-2 (13.24%)
  Node JK-1 (13.24%)
  Node JK-2 (13.24%)
  Node WSC (13.24%)
  
  
  *************************
  Routing Time Step Summary
  *************************
  Minimum Time Step           :     0.00 sec
  Average Time Step           :     2.17 sec
  Maximum Time Step           :     7.04 sec
  % of Time in Steady State   :     0.00
  Average Iterations per Step :     3.44
  % of Steps Not Converging   :    13.24
  Time Step Frequencies       :
     30.000 - 13.228 sec      :     0.00 %
     13.228 -  5.833 sec      :     9.61 %
      5.833 -  2.572 sec      :    19.57 %
      2.572 -  1.134 sec      :    28.59 %
      1.134 -  0.500 sec      :    42.23 %
  
  
  ***************************
  Subcatchment Runoff Summary
  ***************************
  
  ------------------------------------------------------------------------------------------------------------------------------
                            Total      Total      Total      Total     Imperv       Perv      Total       Total     Peak  Runoff
                           Precip      Runon       Evap      Infil     Runoff     Runoff     Runoff      Runoff   Runoff   Coeff
  Subcatchment                 mm         mm         mm         mm         mm         mm         mm    10^6 ltr      LPS
  ------------------------------------------------------------------------------------------------------------------------------
  sub60                    107.74       0.00       0.00       1.90      93.62      11.03     104.65        1.38   865.91   0.971
  sub61                    107.74       0.00       0.00       2.76      88.30      15.56     103.86        1.91  1205.61   0.964
  sub62                    107.74       0.00       0.00       1.27      97.84       7.36     105.20        2.88  1720.14   0.976
  sub63                    107.74       0.00       0.00       5.09      75.53      26.16     101.69        2.31  1390.90   0.944
  sub64                    107.74       0.00       0.00       2.57      90.38      13.59     103.97        2.50  1428.88   0.965
  sub65                    107.74       0.00       0.00       2.23      92.48      11.78     104.26        2.87  1601.77   0.968
  sub66                    107.74       0.00       0.00       6.32      75.42      24.93     100.35        4.68  2204.78   0.931
  sub67                    107.74       0.00       0.00       1.21      97.88       7.41     105.29        1.96  1294.17   0.977
  sub68                    107.74       0.00       0.00       2.28      91.48      12.80     104.28        2.87  1756.94   0.968
  sub69                    107.74       0.00       0.00       2.07      91.47      14.10     105.57        3.91  2128.94   0.980
  sub70                    107.74       0.00       0.00       6.91      70.94      29.72     100.67        2.91  1240.64   0.934
  sub71                    107.74       0.00       0.00       1.30      97.80       7.32     105.12        2.75  1541.45   0.976
  sub72                    107.74       0.00       0.00       1.16      98.80       6.39     105.18        1.45   757.72   0.976
  
  
  ******************
  Node Depth Summary
  ******************
  
  ---------------------------------------------------------------------------------
                                 Average  Maximum  Maximum  Time of Max    Reported
                                   Depth    Depth      HGL   Occurrence   Max Depth
  Node                 Type       Meters   Meters   Meters  days hr:min      Meters
  ---------------------------------------------------------------------------------
  WS02003060           JUNCTION     0.25     0.38     5.32     0  02:09        0.38
  WS02003066           JUNCTION     0.20     0.30     5.85     0  02:08        0.30
  WS02003067           JUNCTION     0.51     0.70     6.02     0  02:08        0.70
  WS02003069           JUNCTION     0.27     0.43     5.02     0  02:09        0.43
  WS02003072           JUNCTION     0.34     0.50     4.87     0  02:10        0.50
  WS02003073           JUNCTION     0.19     0.30     4.36     0  02:11        0.30
  WS02004401           JUNCTION     0.61     0.88     6.88     0  02:07        0.88
  WS02004402           JUNCTION     0.65     0.91     6.87     0  02:07        0.90
  WS02004403           JUNCTION     0.67     0.92     6.85     0  02:13        0.92
  WS02004404           JUNCTION     0.75     1.04     6.89     0  02:58        1.00
  WS02004405           JUNCTION     0.73     0.97     6.82     0  02:12        0.97
  WS02004406           JUNCTION     0.74     0.96     6.79     0  02:06        0.96
  WS02004407           JUNCTION     0.18     0.30     6.61     0  02:06        0.30
  WS02004409           JUNCTION     0.41     0.67     6.44     0  02:06        0.67
  WS02004410           JUNCTION     0.43     0.68     6.40     0  02:07        0.68
  WS02004411           JUNCTION     0.45     0.69     6.37     0  02:07        0.69
  WS02004412           JUNCTION     0.47     0.70     6.34     0  02:07        0.70
  WS02004413           JUNCTION     0.63     0.86     6.33     0  02:08        0.86
  WS02006109           JUNCTION     0.67     1.13     7.75     0  02:35        1.05
  WS02006110           JUNCTION     0.67     1.28     7.86     0  02:35        0.98
  WS02006111           JUNCTION     0.18     0.29     6.99     0  03:08        0.29
  WS02006112           JUNCTION     0.77     1.08     6.97     0  02:12        1.08
  WS02006113           JUNCTION     0.28     0.46     7.35     0  03:45        0.46
  WS02006115           JUNCTION     0.50     0.78     6.92     0  02:08        0.77
  WS02006116           JUNCTION     0.59     0.86     6.90     0  02:59        0.86
  WS02006228           JUNCTION     0.66     1.14     7.79     0  02:35        1.13
  WS02006229           JUNCTION     0.64     1.16     7.85     0  02:35        1.16
  WS02006230           JUNCTION     0.64     1.30     8.05     0  02:34        1.30
  WS02006231           JUNCTION     0.45     1.20     8.33     0  02:20        1.04
  WS02006232           JUNCTION     0.58     1.33     8.37     0  02:35        1.30
  WS02006234           JUNCTION     0.52     1.52     8.68     0  03:45        1.52
  WS02006235           JUNCTION     0.56     1.67     8.83     0  03:45        1.67
  WS02006238           JUNCTION     0.59     1.71     8.86     0  03:45        1.71
  WS02006239           JUNCTION     0.55     1.64     8.85     0  01:38        1.62
  WS02006240           JUNCTION     0.52     1.51     8.80     0  02:19        1.51
  WS02006242           JUNCTION     0.59     1.55     8.82     0  01:48        1.55
  WS02006243           JUNCTION     0.51     1.48     8.90     0  01:39        1.48
  WS02006245           JUNCTION     0.51     1.56     9.04     0  01:39        1.56
  WS02006247           JUNCTION     0.53     1.47     8.97     0  01:39        1.47
  WS02006248           JUNCTION     0.50     1.10     8.69     0  01:39        1.10
  WS02006249           JUNCTION     0.53     1.09     8.69     0  01:38        1.09
  WS02006251           JUNCTION     0.53     1.77     9.44     0  01:39        1.46
  WS02006252           JUNCTION     0.37     1.50     9.74     0  00:00        1.04
  WS02006256           JUNCTION     1.07     2.35     9.28     0  00:00        2.35
  WSF200               JUNCTION     0.18     0.29     5.53     0  02:08        0.29
  YS02001580           JUNCTION     0.15     1.05     9.59     0  01:44        0.79
  YS02001583           JUNCTION     0.18     0.99     9.48     0  01:44        0.85
  YS02001586           JUNCTION     0.28     1.13     9.30     0  01:44        1.13
  YS02001590           JUNCTION     0.39     1.40     9.26     0  01:44        1.39
  YS02001593           JUNCTION     0.32     1.31     9.18     0  01:44        1.29
  YS02001596           JUNCTION     0.43     1.70     9.12     0  02:04        1.70
  YS02001600           JUNCTION     0.51     1.87     9.00     0  01:44        1.87
  YS02001601           JUNCTION     0.71     2.06     8.90     0  01:43        2.06
  YS02001602           JUNCTION     0.61     1.87     8.77     0  01:48        1.87
  YS02001605           JUNCTION     0.57     1.78     8.68     0  02:02        1.78
  YS02001607           JUNCTION     0.55     1.66     8.51     0  02:04        1.66
  YS02001610           JUNCTION     0.60     1.68     8.48     0  01:49        1.68
  YS02001613           JUNCTION     0.55     1.70     8.54     0  02:02        1.70
  YS02001616           JUNCTION     0.48     1.61     8.52     0  01:58        1.61
  YS02001619           JUNCTION     0.46     1.61     8.54     0  01:58        1.61
  YS02001622           JUNCTION     0.45     1.61     8.52     0  02:04        1.60
  YS02001625           JUNCTION     0.71     1.78     8.38     0  01:49        1.78
  YS02001629           JUNCTION     0.59     1.85     8.40     0  01:51        1.85
  YS02001633           JUNCTION     0.67     2.08     8.53     0  02:02        2.08
  YS02001641           JUNCTION     0.64     1.98     8.42     0  02:04        1.98
  YS02001644           JUNCTION     0.64     1.92     8.35     0  01:53        1.92
  YS02001647           JUNCTION     0.42     1.78     8.39     0  02:00        1.78
  YS02001649           JUNCTION     0.48     2.03     8.42     0  02:00        2.02
  YS02001652           JUNCTION     0.36     1.91     8.51     0  02:00        1.91
  YS02001655           JUNCTION     0.29     1.78     8.63     0  02:02        1.78
  YS02001658           JUNCTION     0.22     1.58     8.72     0  02:01        1.57
  YS02001661           JUNCTION     0.22     1.42     8.82     0  02:01        1.41
  YS02001664           JUNCTION     0.08     1.00     8.92     0  02:01        0.97
  YS02001745           JUNCTION     0.12     1.03     8.55     0  02:01        1.03
  YS02001748           JUNCTION     0.21     1.45     8.53     0  01:54        1.45
  YS02001751           JUNCTION     0.25     1.60     8.48     0  02:02        1.60
  YS02001754           JUNCTION     0.33     1.81     8.42     0  02:01        1.81
  YS02001757           JUNCTION     0.52     2.12     8.38     0  02:00        2.11
  YS02001759           JUNCTION     0.45     2.12     8.48     0  01:59        2.12
  YS02001762           JUNCTION     0.44     2.08     8.48     0  02:00        2.08
  YS02001765           JUNCTION     0.41     2.02     8.47     0  01:59        2.02
  YS02001767           JUNCTION     0.41     1.97     8.46     0  02:00        1.97
  YS02001770           JUNCTION     0.42     1.95     8.44     0  01:58        1.95
  YS02001774           JUNCTION     0.49     2.03     8.45     0  02:04        2.00
  YS02001779           JUNCTION     0.31     1.68     8.37     0  01:50        1.68
  YS02001783           JUNCTION     0.31     1.34     7.48     0  01:49        1.25
  YS02001784           JUNCTION     0.31     1.21     7.27     0  02:04        1.21
  YS02001786           JUNCTION     0.26     0.93     6.96     0  01:49        0.88
  YS02001788           JUNCTION     0.19     0.63     6.61     0  02:01        0.63
  YS02001790           JUNCTION     0.22     0.74     6.38     0  02:00        0.72
  YS02001791           JUNCTION     0.14     0.45     5.92     0  01:56        0.44
  YS02001793           JUNCTION     0.07     0.29     5.13     0  02:10        0.28
  YS02001882           JUNCTION     0.39     1.76     8.48     0  02:04        1.70
  YS02001884           JUNCTION     0.48     1.84     8.46     0  02:04        1.80
  YS02001887           JUNCTION     0.56     1.88     8.42     0  02:04        1.88
  YS02001890           JUNCTION     0.58     1.81     8.32     0  01:50        1.81
  YS02001895           JUNCTION     0.35     1.62     8.37     0  02:04        1.62
  YS02001898           JUNCTION     0.36     1.58     8.31     0  02:20        1.56
  YS02001901           JUNCTION     0.48     1.69     8.29     0  02:20        1.68
  YS02001904           JUNCTION     0.46     1.65     8.28     0  02:09        1.65
  YS02001907           JUNCTION     0.78     1.96     8.25     0  01:49        1.96
  YS02001910           JUNCTION     0.58     2.10     8.61     0  02:02        2.10
  YS02001915           JUNCTION     0.40     2.00     8.72     0  01:59        2.00
  YS02001918           JUNCTION     0.24     1.81     8.88     0  01:50        1.73
  YS02001920           JUNCTION     0.31     2.03     9.04     0  01:50        1.84
  YS02001923           JUNCTION     0.19     1.90     9.16     0  01:50        1.62
  YS02001926           JUNCTION     0.21     1.79     9.24     0  01:50        1.51
  YS02001929           JUNCTION     0.13     1.72     9.42     0  01:50        1.22
  YS02006553           JUNCTION     0.78     2.02     8.30     0  01:49        2.01
  YS02006556           JUNCTION     0.75     2.04     8.35     0  01:49        1.98
  YS02006558           JUNCTION     0.80     2.09     8.36     0  01:49        2.05
  YS02006561           JUNCTION     0.19     1.05     7.71     0  01:49        0.92
  YS02163301           JUNCTION     0.61     1.99     8.51     0  02:02        1.99
  YS02163601           JUNCTION     0.70     2.06     8.46     0  02:02        2.06
  YS02164001           JUNCTION     0.63     1.98     8.44     0  02:19        1.98
  CC-1                 OUTFALL      0.00     0.00     0.00     0  00:00        0.00
  CC-2                 OUTFALL      0.00     0.00     0.00     0  00:00        0.00
  JK-1                 OUTFALL      0.00     0.00     0.00     0  00:00        0.00
  JK-2                 OUTFALL      0.00     0.00     0.00     0  00:00        0.00
  WSC                  OUTFALL      0.19     0.30     0.97     0  02:11        0.30
  CC-storage           STORAGE      0.95     1.94     7.44     0  02:38        1.94
  JK-storage           STORAGE      2.16     4.22     5.02     0  01:54        4.19
  
  
  *******************
  Node Inflow Summary
  *******************
  
  -------------------------------------------------------------------------------------------------
                                  Maximum  Maximum                  Lateral       Total        Flow
                                  Lateral    Total  Time of Max      Inflow      Inflow     Balance
                                   Inflow   Inflow   Occurrence      Volume      Volume       Error
  Node                 Type           LPS      LPS  days hr:min    10^6 ltr    10^6 ltr     Percent
  -------------------------------------------------------------------------------------------------
  WS02003060           JUNCTION     16.53   557.42     0  02:08       0.476           6       0.041
  WS02003066           JUNCTION      0.00   540.64     0  02:08           0        5.53       0.026
  WS02003067           JUNCTION      0.00   540.55     0  02:08           0        5.53       0.078
  WS02003069           JUNCTION      0.32   557.59     0  02:09     0.00922        6.01       0.071
  WS02003072           JUNCTION      0.00   557.27     0  02:09           0           6       0.121
  WS02003073           JUNCTION      1.82   558.95     0  02:10      0.0524        6.05       0.099
  WS02004401           JUNCTION      0.00   540.10     0  03:00           0        5.63       0.187
  WS02004402           JUNCTION      0.00   541.29     0  02:07           0        5.62       0.190
  WS02004403           JUNCTION      0.00   544.44     0  03:00           0        5.61       0.184
  WS02004404           JUNCTION      0.16   564.71     0  02:09     0.00467         5.6       0.090
  WS02004405           JUNCTION      0.04   609.76     0  02:30      0.0011         5.6       0.160
  WS02004406           JUNCTION      0.00   549.67     0  02:05           0        5.59       0.378
  WS02004407           JUNCTION      0.00   542.53     0  02:06           0        5.57       0.025
  WS02004409           JUNCTION      0.00   541.77     0  02:06           0        5.56       0.054
  WS02004410           JUNCTION      0.00   541.16     0  02:06           0        5.56       0.084
  WS02004411           JUNCTION      0.00   540.86     0  02:07           0        5.56       0.106
  WS02004412           JUNCTION      0.00   540.83     0  02:07           0        5.55       0.140
  WS02004413           JUNCTION      0.00   540.76     0  02:07           0        5.54       0.246
  WS02006109           JUNCTION      1.23   558.62     0  02:35      0.0354        5.68       0.149
  WS02006110           JUNCTION      0.00   559.74     0  02:35           0        5.67       0.133
  WS02006111           JUNCTION      0.00   565.47     0  03:45           0        5.66       0.017
  WS02006112           JUNCTION      0.00   543.92     0  03:08           0        5.66       0.315
  WS02006113           JUNCTION      0.00   569.16     0  02:35           0        5.66       0.039
  WS02006115           JUNCTION      0.00   553.34     0  02:47           0        5.64       0.123
  WS02006116           JUNCTION      0.00   539.73     0  02:05           0        5.63       0.109
  WS02006228           JUNCTION      0.00   556.63     0  02:35           0        5.64       0.067
  WS02006229           JUNCTION      0.00   556.50     0  02:35           0        5.65       0.099
  WS02006230           JUNCTION     10.28   584.15     0  03:05       0.296        5.66       0.108
  WS02006231           JUNCTION      0.00   575.16     0  02:34           0        5.36      -0.038
  WS02006232           JUNCTION      0.00   574.29     0  02:34           0        5.37       0.215
  WS02006234           JUNCTION      0.00   569.26     0  02:34           0        5.36      -0.238
  WS02006235           JUNCTION      0.00   562.13     0  02:34           0        5.45       0.258
  WS02006238           JUNCTION      0.00   422.67     0  02:30           0        4.28      -0.069
  WS02006239           JUNCTION      0.00   422.12     0  02:40           0        4.22      -0.085
  WS02006240           JUNCTION      0.00   419.65     0  02:15           0        4.19      -0.041
  WS02006242           JUNCTION      0.00   420.32     0  03:45           0        4.18       0.019
  WS02006243           JUNCTION      0.00   420.35     0  03:45           0        4.17      -0.077
  WS02006245           JUNCTION      0.00   419.87     0  03:45           0        4.19       0.319
  WS02006247           JUNCTION      0.00   420.85     0  03:45           0        4.19       0.015
  WS02006248           JUNCTION      0.00   421.48     0  03:45           0        4.19       0.027
  WS02006249           JUNCTION      0.00   459.02     0  00:00           0        4.52       0.295
  WS02006251           JUNCTION      0.08   411.51     0  01:49     0.00222        4.52       0.017
  WS02006252           JUNCTION      0.00   400.00     0  00:00           0        4.51      -0.248
  WS02006256           JUNCTION      0.00   300.00     0  00:00           0        1.74      -1.469
  WSF200               JUNCTION      0.00   540.69     0  02:08           0        5.52       0.009
  YS02001580           JUNCTION      0.00    69.42     0  01:44           0     0.00423       1.557
  YS02001583           JUNCTION      0.00   113.68     0  01:43           0      0.0157      -3.978
  YS02001586           JUNCTION   1240.64  1240.64     0  02:04        2.91        2.92       0.035
  YS02001590           JUNCTION      0.00   318.02     0  01:51           0         1.8      -0.018
  YS02001593           JUNCTION      0.00   318.11     0  01:51           0         1.8       0.002
  YS02001596           JUNCTION      0.00   318.10     0  01:51           0         1.8      -0.007
  YS02001600           JUNCTION      0.00   318.12     0  02:07           0         1.8       0.012
  YS02001601           JUNCTION   2128.94  2446.41     0  02:02        3.91        5.71       0.012
  YS02001602           JUNCTION      0.00   498.07     0  01:43           0        2.84       0.015
  YS02001605           JUNCTION      0.00   497.33     0  01:43           0        2.63       0.021
  YS02001607           JUNCTION      0.00   497.42     0  01:43           0        2.63       0.075
  YS02001610           JUNCTION      0.00   955.63     0  02:04           0        3.37       0.070
  YS02001613           JUNCTION      0.00   619.01     0  02:04           0        2.54       0.066
  YS02001616           JUNCTION      0.00   621.32     0  02:04           0        2.54       0.016
  YS02001619           JUNCTION   2204.78  2204.78     0  02:03        4.68        6.48       0.001
  YS02001622           JUNCTION      0.00  1053.95     0  02:09           0        5.52       0.001
  YS02001625           JUNCTION      0.00  1505.33     0  02:09           0        6.05       0.177
  YS02001629           JUNCTION      0.00   929.15     0  01:49           0         4.2      -0.003
  YS02001633           JUNCTION   1601.97  1601.97     0  02:02        2.88        6.35       0.052
  YS02001641           JUNCTION      0.00  1359.20     0  01:49           0        5.62       0.048
  YS02001644           JUNCTION   1428.92  2660.87     0  02:02         2.5        8.25       0.043
  YS02001647           JUNCTION      0.00  1741.51     0  01:49           0        6.59       0.004
  YS02001649           JUNCTION      0.00  1982.72     0  01:50           0        8.77       0.003
  YS02001652           JUNCTION      0.00  1401.28     0  02:01           0        2.31      -0.052
  YS02001655           JUNCTION      0.15  1400.84     0  02:01     0.00443        2.31       0.008
  YS02001658           JUNCTION      0.00  1400.25     0  02:01           0        2.31      -0.016
  YS02001661           JUNCTION      0.00  1400.61     0  02:01           0        2.31       0.002
  YS02001664           JUNCTION   1390.90  1390.90     0  02:02        2.31        2.31      -0.007
  YS02001745           JUNCTION    865.92   865.92     0  02:01        1.38        1.38       0.112
  YS02001748           JUNCTION      0.04   874.31     0  02:01      0.0013        1.38      -0.180
  YS02001751           JUNCTION      0.01   874.35     0  02:01    0.000317        1.38       0.036
  YS02001754           JUNCTION      0.26   874.91     0  02:01     0.00749        1.39      -0.102
  YS02001757           JUNCTION      0.00  3252.13     0  01:54           0          14       0.038
  YS02001759           JUNCTION   1205.65  1393.73     0  01:59        1.91        3.93      -0.005
  YS02001762           JUNCTION      0.00   728.92     0  01:54           0        2.03       0.013
  YS02001765           JUNCTION      0.00   729.61     0  01:54           0        2.02       0.015
  YS02001767           JUNCTION      0.54   730.23     0  01:54      0.0154        2.02       0.005
  YS02001770           JUNCTION   1720.29  1720.29     0  02:02        2.89        2.93       0.004
  YS02001774           JUNCTION      0.00   852.03     0  02:05           0       0.755       0.183
  YS02001779           JUNCTION      0.01   851.70     0  02:05    0.000144       0.708      -0.034
  YS02001783           JUNCTION      0.00  1178.53     0  02:01           0        5.54       0.002
  YS02001784           JUNCTION      1.06  1179.56     0  02:01      0.0305        5.57       0.009
  YS02001786           JUNCTION      0.06  1179.63     0  02:01     0.00162        5.57       0.011
  YS02001788           JUNCTION      0.07  1179.28     0  02:01     0.00204        5.57       0.006
  YS02001790           JUNCTION      0.15  1192.24     0  02:00     0.00446        5.58       0.020
  YS02001791           JUNCTION      0.00  1310.12     0  02:00           0        5.58      -0.033
  YS02001793           JUNCTION      0.00  1271.35     0  02:00           0        5.58       0.004
  YS02001882           JUNCTION      0.00    31.52     0  01:47           0      0.0139       5.886
  YS02001884           JUNCTION      0.00    47.00     0  01:46           0      0.0505       5.387
  YS02001887           JUNCTION   1294.62  1294.65     0  02:01        1.97        2.01       0.220
  YS02001890           JUNCTION      0.00  1294.78     0  02:01           0        1.96       0.253
  YS02001895           JUNCTION      0.00   519.60     0  02:02           0        1.58       0.106
  YS02001898           JUNCTION      0.00   518.52     0  02:02           0        1.58      -0.007
  YS02001901           JUNCTION      0.00   518.23     0  02:09           0        1.58       0.213
  YS02001904           JUNCTION      0.00   518.12     0  02:09           0        1.59       0.177
  YS02001907           JUNCTION      0.00  3099.45     0  02:02           0        5.99       0.298
  YS02001910           JUNCTION      0.00  1993.13     0  02:05           0        4.21       0.165
  YS02001915           JUNCTION   1541.47  2301.32     0  02:02        2.75        4.31       0.037
  YS02001918           JUNCTION      0.00   763.00     0  02:02           0        1.57       0.003
  YS02001920           JUNCTION      2.87   762.72     0  02:02      0.0827        1.56       0.065
  YS02001923           JUNCTION      0.04   758.98     0  02:02     0.00109        1.47      -0.023
  YS02001926           JUNCTION      0.05   758.36     0  02:02      0.0015        1.45      -0.008
  YS02001929           JUNCTION    757.72   757.72     0  02:03        1.45        1.45      -0.040
  YS02006553           JUNCTION      0.00   801.13     0  02:29           0        3.09       0.386
  YS02006556           JUNCTION      0.00   800.71     0  02:29           0         3.1       0.260
  YS02006558           JUNCTION   1757.82  1757.82     0  02:02        2.89        5.77       0.060
  YS02006561           JUNCTION      0.00  1178.29     0  02:01           0        5.54      -0.002
  YS02163301           JUNCTION      0.00   929.79     0  01:49           0         4.2       0.038
  YS02163601           JUNCTION      0.11  1359.96     0  01:49     0.00317        5.62       0.087
  YS02164001           JUNCTION      0.00  1359.48     0  01:49           0        5.62       0.039
  CC-1                 OUTFALL       0.00   683.00     0  00:00           0         5.5       0.000
  CC-2                 OUTFALL       0.00   683.00     0  00:00           0         4.8       0.000
  JK-1                 OUTFALL       0.00  1000.00     0  00:00           0        2.62       0.000
  JK-2                 OUTFALL       0.00  1000.00     0  00:00           0        1.35       0.000
  WSC                  OUTFALL       0.00   558.85     0  02:11           0        6.04       0.000
  CC-storage           STORAGE       0.00  3252.95     0  01:54           0        16.2      -0.199
  JK-storage           STORAGE       0.00  1319.80     0  02:00           0        5.73      -0.305
  
  
  **********************
  Node Surcharge Summary
  **********************
  
  Surcharging occurs when water rises above the top of the highest conduit.
  ---------------------------------------------------------------------
                                               Max. Height   Min. Depth
                                   Hours       Above Crown    Below Rim
  Node                 Type      Surcharged         Meters       Meters
  ---------------------------------------------------------------------
  WS02004404           JUNCTION        0.06          0.035        2.745
  WS02006109           JUNCTION        2.55          0.309        1.511
  WS02006110           JUNCTION        1.12          0.368        1.482
  WS02006112           JUNCTION        1.32          0.084        1.596
  WS02006228           JUNCTION        2.55          0.306        1.894
  WS02006229           JUNCTION        2.55          0.360        2.090
  WS02006230           JUNCTION        1.14          0.224        1.346
  WS02006231           JUNCTION        1.26          0.492        1.038
  WS02006232           JUNCTION        2.57          0.627        0.853
  WS02006234           JUNCTION        1.58          0.805        0.435
  WS02006235           JUNCTION        2.52          0.956        0.334
  WS02006238           JUNCTION        2.55          0.991        0.439
  WS02006239           JUNCTION        2.53          0.897        0.393
  WS02006240           JUNCTION        2.54          0.798        0.592
  WS02006242           JUNCTION        2.56          0.820        0.000
  WS02006243           JUNCTION        2.52          0.770        0.000
  WS02006245           JUNCTION        2.49          0.850        0.000
  WS02006247           JUNCTION        2.49          0.760        0.000
  WS02006248           JUNCTION        2.48          0.380        0.000
  WS02006249           JUNCTION        2.48          0.390        0.000
  WS02006251           JUNCTION        1.30          0.744        0.436
  WS02006252           JUNCTION        2.69          1.100        0.000
  WS02006256           JUNCTION        6.71          2.050        0.000
  YS02001580           JUNCTION        1.04          0.450        0.000
  YS02001583           JUNCTION        1.05          0.349        0.151
  YS02001586           JUNCTION        1.25          0.510        0.000
  YS02001590           JUNCTION        1.34          0.750        0.000
  YS02001593           JUNCTION        1.34          0.695        0.145
  YS02001596           JUNCTION        1.46          0.969        0.101
  YS02001600           JUNCTION        1.59          1.190        0.000
  YS02001601           JUNCTION        1.86          1.440        0.000
  YS02001602           JUNCTION        1.78          1.270        0.000
  YS02001605           JUNCTION        1.74          1.180        0.000
  YS02001607           JUNCTION        1.35          0.659        0.021
  YS02001610           JUNCTION        1.37          0.680        0.000
  YS02001613           JUNCTION        1.34          0.700        0.000
  YS02001616           JUNCTION        1.31          0.610        0.000
  YS02001619           JUNCTION        1.29          0.610        0.000
  YS02001622           JUNCTION        1.30          0.615        0.005
  YS02001625           JUNCTION        1.45          0.780        0.000
  YS02001629           JUNCTION        1.24          0.470        0.000
  YS02001633           JUNCTION        1.49          1.060        0.000
  YS02001641           JUNCTION        1.44          0.978        0.122
  YS02001644           JUNCTION        1.41          0.920        0.000
  YS02001647           JUNCTION        1.21          0.778        0.122
  YS02001649           JUNCTION        1.31          1.026        0.024
  YS02001652           JUNCTION        1.16          0.884        0.246
  YS02001655           JUNCTION        0.93          0.778        0.422
  YS02001658           JUNCTION        0.52          0.577        0.723
  YS02001661           JUNCTION        0.19          0.349        1.041
  YS02001745           JUNCTION        0.02          0.031        1.319
  YS02001748           JUNCTION        0.41          0.374        0.816
  YS02001751           JUNCTION        0.75          0.599        0.601
  YS02001754           JUNCTION        1.06          0.762        0.388
  YS02001757           JUNCTION        1.38          1.118        0.092
  YS02001759           JUNCTION        1.29          1.119        0.091
  YS02001762           JUNCTION        1.27          1.077        0.073
  YS02001765           JUNCTION        1.23          1.024        0.076
  YS02001767           JUNCTION        1.21          0.973        0.057
  YS02001770           JUNCTION        1.19          0.920        0.000
  YS02001774           JUNCTION        1.26          1.029        0.021
  YS02001779           JUNCTION        1.05          0.680        0.000
  YS02001783           JUNCTION        0.87          0.544        1.056
  YS02001784           JUNCTION        0.84          0.407        1.083
  YS02001786           JUNCTION        0.69          0.130        1.300
  YS02001882           JUNCTION        0.79          0.765        0.065
  YS02001884           JUNCTION        0.80          0.783        0.087
  YS02001887           JUNCTION        0.85          0.832        0.118
  YS02001890           JUNCTION        0.87          0.760        0.000
  YS02001895           JUNCTION        0.78          0.621        0.129
  YS02001898           JUNCTION        0.77          0.547        0.193
  YS02001901           JUNCTION        0.83          0.685        0.185
  YS02001904           JUNCTION        0.82          0.653        0.197
  YS02001907           JUNCTION        1.18          0.950        0.000
  YS02001910           JUNCTION        0.91          1.100        0.000
  YS02001915           JUNCTION        0.79          1.000        0.000
  YS02001918           JUNCTION        0.68          0.810        0.000
  YS02001920           JUNCTION        0.69          1.032        0.108
  YS02001923           JUNCTION        0.28          0.692        0.128
  YS02001926           JUNCTION        0.32          0.791        0.109
  YS02001929           JUNCTION        0.16          0.723        0.057
  YS02006553           JUNCTION        1.20          1.018        0.172
  YS02006556           JUNCTION        1.04          1.002        0.348
  YS02006558           JUNCTION        1.02          0.994        0.406
  YS02006561           JUNCTION        0.64          0.249        0.901
  YS02163301           JUNCTION        1.47          0.988        0.042
  YS02163601           JUNCTION        1.53          1.062        0.018
  YS02164001           JUNCTION        1.44          0.981        0.119
  
  
  *********************
  Node Flooding Summary
  *********************
  
  Flooding refers to all water that overflows a node, whether it ponds or not.
  --------------------------------------------------------------------------
                                                             Total   Maximum
                                 Maximum   Time of Max       Flood    Ponded
                        Hours       Rate    Occurrence      Volume     Depth
  Node                 Flooded       LPS   days hr:min    10^6 ltr    Meters
  --------------------------------------------------------------------------
  WS02006242              0.01     13.15      0  01:48       0.000     0.000
  WS02006243              0.01      2.74      0  01:39       0.000     0.000
  WS02006245              0.01      3.16      0  02:19       0.000     0.000
  WS02006247              0.01      3.39      0  02:19       0.000     0.000
  WS02006248              0.01     18.56      0  02:19       0.000     0.000
  WS02006249              1.27    120.40      0  01:49       0.315     0.000
  WS02006252              0.01    245.63      0  00:00       0.000     0.000
  WS02006256              1.61    293.19      0  00:00       0.568     0.000
  YS02001580              0.01     40.54      0  01:44       0.000     0.000
  YS02001586              0.84    923.20      0  02:04       1.106     0.000
  YS02001590              0.01      5.58      0  01:44       0.000     0.000
  YS02001600              0.01      1.24      0  01:44       0.000     0.000
  YS02001601              1.16   2048.59      0  02:02       2.864     0.000
  YS02001602              1.02     62.13      0  02:09       0.210     0.000
  YS02001605              0.01      0.15      0  02:02       0.000     0.000
  YS02001610              0.90    955.33      0  02:04       1.569     0.000
  YS02001613              0.01      1.13      0  02:02       0.000     0.000
  YS02001616              0.06      8.71      0  02:11       0.000     0.000
  YS02001619              0.20    536.19      0  02:03       0.221     0.000
  YS02001625              0.89   1505.17      0  02:09       2.572     0.000
  YS02001629              0.30    412.24      0  02:02       0.193     0.000
  YS02001633              0.01      0.18      0  02:02       0.000     0.000
  YS02001644              0.42   2660.58      0  02:02       1.780     0.000
  YS02001770              0.14    709.70      0  02:02       0.193     0.000
  YS02001779              0.36    851.44      0  02:05       0.688     0.000
  YS02001890              0.33    778.97      0  02:01       0.376     0.000
  YS02001907              0.61   3098.10      0  02:02       3.090     0.000
  YS02001915              0.10    308.84      0  02:02       0.070     0.000
  YS02001918              0.01     54.28      0  01:50       0.000     0.000
  
  
  **********************
  Storage Volume Summary
  **********************
  
  ------------------------------------------------------------------------------------------------
                         Average    Avg   Evap  Exfil     Maximum    Max    Time of Max    Maximum
                          Volume   Pcnt   Pcnt   Pcnt      Volume   Pcnt     Occurrence    Outflow
  Storage Unit           1000 m³   Full   Loss   Loss     1000 m³   Full    days hr:min        LPS
  ------------------------------------------------------------------------------------------------
  CC-storage               2.656   41.4    0.0    0.0       5.393   84.1       0  02:38    1783.53
  JK-storage               0.108   37.2    0.0    0.0       0.212   72.7       0  01:54    2300.00
  
  
  ***********************
  Outfall Loading Summary
  ***********************
  
  -----------------------------------------------------------
                         Flow       Avg       Max       Total
                         Freq      Flow      Flow      Volume
  Outfall Node           Pcnt       LPS       LPS    10^6 ltr
  -----------------------------------------------------------
  CC-1                  40.01    683.00    683.00       5.502
  CC-2                  29.54    683.00    683.00       4.803
  JK-1                  13.82   1000.00   1000.00       2.622
  JK-2                   5.81   1000.00   1000.00       1.347
  WSC                   99.95    278.15    558.85       6.041
  -----------------------------------------------------------
  System                37.83   3644.15   3921.67      20.315
  
  
  ********************
  Link Flow Summary
  ********************
  
  -----------------------------------------------------------------------------
                                 Maximum  Time of Max   Maximum    Max/    Max/
                                  |Flow|   Occurrence   |Veloc|    Full    Full
  Link                 Type          LPS  days hr:min     m/sec    Flow   Depth
  -----------------------------------------------------------------------------
  1                    CONDUIT    558.85     0  02:11      2.83    0.19    0.30
  WS02003060WS02003069 CONDUIT    557.27     0  02:09      1.64    0.22    0.34
  WS02003066WSF200     CONDUIT    540.69     0  02:08      2.86    0.09    0.22
  WS02003067WS02003066 CONDUIT    540.64     0  02:08      1.21    0.17    0.42
  WS02003069WS02003072 CONDUIT    557.27     0  02:09      1.37    0.27    0.39
  WS02003072WS02003073 CONDUIT    557.13     0  02:10      1.44    1.20    0.37
  WS02004401WS02004402 CONDUIT    541.29     0  02:07      0.98    0.65    0.89
  WS02004402WS02004403 CONDUIT    544.44     0  03:00      0.97    0.78    0.91
  WS02004403WS02004404 CONDUIT    564.55     0  02:09      0.92    0.41    0.96
  WS02004404WS02004405 CONDUIT    609.72     0  02:30      1.08    5.97    0.98
  WS02004405WS02004406 CONDUIT    549.67     0  02:05      0.99    1.08    0.96
  WS02004406WS02004407 CONDUIT    542.53     0  02:06      1.04    0.24    0.63
  WS02004407WS02004409 CONDUIT    541.77     0  02:06      1.52    0.19    0.48
  WS02004409WS02004410 CONDUIT    541.16     0  02:06      0.99    0.70    0.68
  WS02004410WS02004411 CONDUIT    540.86     0  02:07      0.94    0.74    0.69
  WS02004411WS02004412 CONDUIT    540.83     0  02:07      0.93    0.77    0.70
  WS02004412WS02004413 CONDUIT    540.76     0  02:07      0.82    0.36    0.78
  WS02004413WS02003067 CONDUIT    540.55     0  02:08      1.11    0.23    0.59
  WS02006109WS02006110 CONDUIT    559.74     0  02:35      1.11    1.08    1.00
  WS02006110WS02006113 CONDUIT    569.16     0  02:35      1.37    0.52    0.79
  WS02006111WS02006112 CONDUIT    543.92     0  03:08      1.81    0.26    0.67
  WS02006112WS02006115 CONDUIT    553.34     0  02:47      0.82    0.33    0.88
  WS02006113WS02006111 CONDUIT    565.47     0  03:45      2.47    0.68    0.46
  WS02006115WS02006116 CONDUIT    539.73     0  02:05      0.99    0.69    0.79
  WS02006116WS02004401 CONDUIT    540.10     0  03:00      0.98    0.74    0.87
  WS02006228WS02006109 CONDUIT    557.39     0  02:35      1.11    2.44    1.00
  WS02006229WS02006228 CONDUIT    556.63     0  02:35      1.14    1.84    1.00
  WS02006230WS02006229 CONDUIT    556.50     0  02:35      1.45   12.38    1.00
  WS02006231WS02006230 CONDUIT    573.87     0  03:05      1.57    8.70    1.00
  WS02006232WS02006231 CONDUIT    575.16     0  02:34      1.50    1.21    1.00
  WS02006234WS02006232 CONDUIT    574.29     0  02:34      1.49    1.16    1.00
  WS02006235WS02006234 CONDUIT    569.26     0  02:34      1.48    6.01    1.00
  WS02006238WS02006235 CONDUIT    422.46     0  02:40      1.45    0.94    1.00
  WS02006239WS02006238 CONDUIT    422.67     0  02:30      1.10    1.35    1.00
  WS02006240WS02006239 CONDUIT    422.12     0  02:40      1.24    1.33    1.00
  WS02006242WS02006240 CONDUIT    419.65     0  02:15      1.13    1.67    1.00
  WS02006243WS02006242 CONDUIT    420.32     0  03:45      1.40    0.90    1.00
  WS02006245WS02006243 CONDUIT    420.35     0  03:45      1.45    1.24    1.00
  WS02006247WS02006245 CONDUIT    419.87     0  03:45      1.43    3.33    1.00
  WS02006248WS02006247 CONDUIT    420.85     0  03:45      1.44    0.92    1.00
  WS02006249WS02006248 CONDUIT    421.48     0  03:45      1.36    2.31    1.00
  WS02006251WS02006249 CONDUIT    459.02     0  00:00      1.99    1.32    1.00
  WS02006252WS02006251 CONDUIT    411.44     0  01:49     24.61    1.51    1.00
  WS02006256WS02006235 CONDUIT    288.91     0  00:00      4.23    3.06    1.00
  WSF200WS02003060     CONDUIT    540.89     0  02:08      2.06    0.12    0.28
  YS02001580YS02001583 CONDUIT     69.42     0  01:44      0.52    0.27    1.00
  YS02001583YS02001586 CONDUIT    113.68     0  01:43      0.48    0.17    1.00
  YS02001586YS02001590 CONDUIT    318.02     0  01:51      1.24    0.56    1.00
  YS02001590YS02001593 CONDUIT    318.11     0  01:51      1.13    2.00    1.00
  YS02001593YS02001596 CONDUIT    318.10     0  01:51      1.71    0.50    1.00
  YS02001596YS02001600 CONDUIT    318.12     0  02:07      1.26    0.62    1.00
  YS02001600YS02001601 CONDUIT    318.10     0  02:04      1.13    0.55    1.00
  YS02001601YS02001602 CONDUIT    498.07     0  01:43      1.76    1.80    1.00
  YS02001602YS02001605 CONDUIT    497.33     0  01:43      1.76   10.52    1.00
  YS02001605YS02001607 CONDUIT    497.42     0  01:43      1.76    2.73    1.00
  YS02001607YS02001610 CONDUIT    498.00     0  01:43      0.63    0.47    1.00
  YS02001610YS02001613 CONDUIT    619.18     0  02:04      0.79    0.71    1.00
  YS02001613YS02001616 CONDUIT    619.01     0  02:04      0.79    0.53    1.00
  YS02001616YS02001619 CONDUIT    621.32     0  02:04      0.79    1.08    1.00
  YS02001619YS02001622 CONDUIT   1053.95     0  02:09      1.34    1.55    1.00
  YS02001622YS02001625 CONDUIT   1053.67     0  02:03      1.34    0.56    1.00
  YS02001625YS02001629 CONDUIT    929.15     0  01:49      1.18    0.44    1.00
  YS02001629YS02163301 CONDUIT    929.79     0  01:49      1.18    1.15    1.00
  YS02001633YS02163601 CONDUIT   1359.85     0  01:49      1.73    1.43    1.00
  YS02001641YS02001644 CONDUIT   1359.60     0  01:49      1.73    4.40    1.00
  YS02001644YS02001647 CONDUIT   1741.51     0  01:49      2.23    1.02    1.00
  YS02001647YS02001649 CONDUIT   1738.57     0  01:49      2.33    0.92    1.00
  YS02001649YS02001757 CONDUIT   1982.82     0  01:50      2.55    1.20    1.00
  YS02001652YS02001649 CONDUIT   1402.10     0  02:01      1.79    0.69    1.00
  YS02001655YS02001652 CONDUIT   1401.28     0  02:01      1.78    0.68    1.00
  YS02001658YS02001655 CONDUIT   1400.69     0  02:01      1.84    0.59    1.00
  YS02001661YS02001658 CONDUIT   1400.25     0  02:01      2.25    0.55    1.00
  YS02001664YS02001661 CONDUIT   1400.61     0  02:01      2.21    0.44    1.00
  YS02001745YS02001748 CONDUIT    874.26     0  02:01      2.10    0.34    1.00
  YS02001748YS02001751 CONDUIT    874.34     0  02:01      1.66    0.44    1.00
  YS02001751YS02001754 CONDUIT    874.65     0  02:01      1.41    0.42    1.00
  YS02001754YS02001757 CONDUIT    875.05     0  02:01      1.11    0.35    1.00
  YS02001757CaochengTiaoxuchi CONDUIT   3252.95     0  01:54      4.14    1.41    1.00
  YS02001759YS02001757 CONDUIT   1393.91     0  02:00      1.77    0.99    1.00
  YS02001762YS02001759 CONDUIT    729.56     0  01:54      0.93    0.84    1.00
  YS02001765YS02001762 CONDUIT    728.92     0  01:54      0.93    0.68    1.00
  YS02001767YS02001765 CONDUIT    729.61     0  01:54      0.93    0.92    1.00
  YS02001770YS02001767 CONDUIT    729.69     0  01:54      0.93    2.89    1.00
  YS02001774YS02001770 CONDUIT    852.03     0  02:05      1.08    0.54    1.00
  YS02001779YS02001774 CONDUIT    851.69     0  02:05      1.08    0.43    1.00
  YS02001783YS02001784 CONDUIT   1178.50     0  02:01      2.34    1.62    1.00
  YS02001784YS02001785 CONDUIT   1179.57     0  02:01      2.35    2.75    1.00
  YS02001786YS02001788 CONDUIT   1179.21     0  02:01      2.51    2.27    0.89
  YS02001788YS02001790 CONDUIT   1192.08     0  02:00      2.74    0.88    0.85
  YS02001790YS02001791 CONDUIT   1310.12     0  02:00      3.44    1.43    0.71
  YS02001791YS02001793 CONDUIT   1271.35     0  02:00      6.83    0.55    0.44
  YS02001793JiankangQianchi CONDUIT   1319.80     0  02:00      2.63    0.10    0.65
  YS02001882YS02001884 CONDUIT     31.52     0  01:47      0.18    0.04    1.00
  YS02001884YS02001887 CONDUIT     47.00     0  01:46      0.14    0.06    1.00
  YS02001887YS02001890 CONDUIT   1294.78     0  02:01      1.65    2.22    1.00
  YS02001890YS02001895 CONDUIT    519.60     0  02:02      0.66    0.24    1.00
  YS02001895YS02001898 CONDUIT    518.52     0  02:02      0.66    0.90    1.00
  YS02001898YS02001901 CONDUIT    518.23     0  02:09      0.66    0.33    1.00
  YS02001901YS02001904 CONDUIT    518.12     0  02:09      0.66    0.80    1.00
  YS02001904YS02001907 CONDUIT    519.02     0  02:03      0.66    0.18    1.00
  YS02001907YS02006553 CONDUIT    801.13     0  02:29      0.89    0.94    1.00
  YS02001910YS02001907 CONDUIT   1993.00     0  02:05      2.54    1.12    1.00
  YS02001915YS02001910 CONDUIT   1993.13     0  02:05      2.54    0.99    1.00
  YS02001918YS02001915 CONDUIT    764.31     0  02:02      0.97    0.42    1.00
  YS02001920YS02001918 CONDUIT    763.00     0  02:02      0.97    0.74    1.00
  YS02001923YS02001920 CONDUIT    759.85     0  02:02      0.97    0.34    1.00
  YS02001926YS02001923 CONDUIT    758.95     0  02:02      0.97    1.08    1.00
  YS02001929YS02001926 CONDUIT    758.30     0  02:02      1.07    0.36    1.00
  YS02006553YS02006556 CONDUIT    800.71     0  02:29      1.02    0.68    1.00
  YS02006556YS02006558 CONDUIT    801.96     0  02:29      1.02    0.63    1.00
  YS02006558YS02006561 CONDUIT   1178.29     0  02:01      4.17    2.60    1.00
  YS02006561YS02001783 CONDUIT   1178.53     0  02:01      2.34    0.61    1.00
  YS02163301YS02001633 CONDUIT    929.72     0  01:49      1.18    0.87    1.00
  YS02163601YS02164001 CONDUIT   1359.48     0  01:49      1.73    1.20    1.00
  YS02164001YS02001641 CONDUIT   1359.20     0  01:49      1.73    1.86    1.00
  CC-R1                PUMP       683.00     0  00:00              1.00
  CC-R2                PUMP       683.00     0  00:00              1.00
  CC-S1                PUMP       200.00     0  00:00              1.00
  CC-S2                PUMP       200.00     0  00:00              1.00
  JK-R1                PUMP      1000.00     0  00:00              1.00
  JK-R2                PUMP      1000.00     0  00:00              1.00
  JK-S                 PUMP       300.00     0  00:00              1.00
  
  
  ***************************
  Flow Classification Summary
  ***************************
  
  -------------------------------------------------------------------------------------
                      Adjusted    ---------- Fraction of Time in Flow Class ---------- 
                       /Actual         Up    Down  Sub   Sup   Up    Down  Norm  Inlet 
  Conduit               Length    Dry  Dry   Dry   Crit  Crit  Crit  Crit  Ltd   Ctrl  
  -------------------------------------------------------------------------------------
  1                       1.00   0.00  0.00  0.00  0.00  1.00  0.00  0.00  0.37  0.00
  WS02003060WS02003069    1.00   0.00  0.00  0.00  0.98  0.02  0.00  0.00  0.64  0.00
  WS02003066WSF200        1.00   0.13  0.00  0.00  0.00  0.87  0.00  0.00  0.72  0.00
  WS02003067WS02003066    1.00   0.10  0.02  0.00  0.88  0.00  0.00  0.00  0.00  0.00
  WS02003069WS02003072    1.00   0.00  0.00  0.00  0.99  0.01  0.00  0.00  0.66  0.00
  WS02003072WS02003073    1.00   0.00  0.00  0.00  0.00  0.00  0.00  1.00  0.00  0.00
  WS02004401WS02004402    1.00   0.02  0.00  0.00  0.98  0.00  0.00  0.00  0.00  0.00
  WS02004402WS02004403    1.00   0.02  0.00  0.00  0.97  0.00  0.00  0.00  0.00  0.00
  WS02004403WS02004404    1.00   0.00  0.03  0.00  0.97  0.00  0.00  0.00  0.00  0.00
  WS02004404WS02004405    1.00   0.00  0.00  0.00  1.00  0.00  0.00  0.00  0.01  0.00
  WS02004405WS02004406    1.00   0.00  0.00  0.00  1.00  0.00  0.00  0.00  0.00  0.00
  WS02004406WS02004407    1.00   0.00  0.05  0.00  0.95  0.00  0.00  0.00  0.00  0.00
  WS02004407WS02004409    1.00   0.05  0.00  0.00  0.94  0.01  0.00  0.00  0.94  0.00
  WS02004409WS02004410    1.00   0.05  0.00  0.00  0.95  0.00  0.00  0.00  0.03  0.00
  WS02004410WS02004411    1.00   0.05  0.00  0.00  0.95  0.00  0.00  0.00  0.01  0.00
  WS02004411WS02004412    1.00   0.05  0.00  0.00  0.95  0.00  0.00  0.00  0.00  0.00
  WS02004412WS02004413    1.00   0.05  0.00  0.00  0.94  0.00  0.00  0.00  0.01  0.00
  WS02004413WS02003067    1.00   0.06  0.04  0.00  0.00  0.00  0.90  0.00  0.00  0.00
  WS02006109WS02006110    1.00   0.00  0.01  0.00  0.98  0.00  0.01  0.00  0.00  0.00
  WS02006110WS02006113    1.00   0.01  0.01  0.00  0.98  0.00  0.00  0.00  0.00  0.00
  WS02006111WS02006112    1.00   0.02  0.00  0.00  0.98  0.00  0.00  0.00  0.98  0.00
  WS02006112WS02006115    1.00   0.02  0.00  0.00  0.97  0.00  0.00  0.00  0.00  0.00
  WS02006113WS02006111    1.00   0.02  0.00  0.00  0.00  0.98  0.00  0.00  0.13  0.00
  WS02006115WS02006116    1.00   0.02  0.00  0.00  0.97  0.00  0.00  0.01  0.00  0.00
  WS02006116WS02004401    1.00   0.02  0.00  0.00  0.98  0.00  0.00  0.00  0.00  0.00
  WS02006228WS02006109    1.00   0.00  0.00  0.00  1.00  0.00  0.00  0.00  0.00  0.00
  WS02006229WS02006228    1.00   0.00  0.00  0.00  0.99  0.00  0.00  0.01  0.00  0.00
  WS02006230WS02006229    1.00   0.00  0.00  0.00  0.99  0.00  0.00  0.01  0.02  0.00
  WS02006231WS02006230    1.00   0.00  0.00  0.00  0.33  0.00  0.67  0.00  0.00  0.00
  WS02006232WS02006231    1.00   0.00  0.00  0.00  0.99  0.00  0.01  0.00  0.00  0.00
  WS02006234WS02006232    1.00   0.00  0.00  0.00  1.00  0.00  0.00  0.00  0.07  0.00
  WS02006235WS02006234    1.00   0.00  0.00  0.00  0.89  0.00  0.11  0.00  0.00  0.00
  WS02006238WS02006235    1.00   0.00  0.00  0.00  1.00  0.00  0.00  0.00  0.00  0.00
  WS02006239WS02006238    1.00   0.00  0.00  0.00  1.00  0.00  0.00  0.00  0.17  0.00
  WS02006240WS02006239    1.00   0.00  0.00  0.00  0.71  0.00  0.00  0.29  0.03  0.00
  WS02006242WS02006240    1.00   0.00  0.00  0.00  0.99  0.00  0.01  0.00  0.00  0.00
  WS02006243WS02006242    1.00   0.00  0.00  0.00  0.99  0.00  0.00  0.01  0.51  0.00
  WS02006245WS02006243    1.00   0.00  0.00  0.00  0.78  0.00  0.00  0.22  0.01  0.00
  WS02006247WS02006245    1.00   0.00  0.00  0.00  0.97  0.00  0.00  0.03  0.00  0.00
  WS02006248WS02006247    1.00   0.00  0.00  0.00  0.99  0.00  0.00  0.01  0.41  0.00
  WS02006249WS02006248    1.00   0.00  0.00  0.00  0.51  0.00  0.49  0.00  0.00  0.00
  WS02006251WS02006249    1.00   0.00  0.00  0.00  0.99  0.01  0.00  0.00  0.50  0.00
  WS02006252WS02006251    1.00   0.00  0.41  0.00  0.16  0.00  0.43  0.00  0.00  0.00
  WS02006256WS02006235    1.00   0.00  0.00  0.00  0.98  0.02  0.00  0.00  0.00  0.00
  WSF200WS02003060        1.00   0.00  0.13  0.00  0.34  0.53  0.00  0.00  0.47  0.00
  YS02001580YS02001583    1.00   0.21  0.53  0.00  0.26  0.00  0.00  0.00  0.62  0.00
  YS02001583YS02001586    1.00   0.40  0.29  0.00  0.31  0.00  0.00  0.00  0.62  0.00
  YS02001586YS02001590    1.00   0.13  0.00  0.00  0.47  0.04  0.00  0.37  0.33  0.00
  YS02001590YS02001593    1.00   0.13  0.01  0.00  0.18  0.00  0.69  0.00  0.00  0.00
  YS02001593YS02001596    1.00   0.13  0.00  0.00  0.20  0.01  0.00  0.66  0.02  0.00
  YS02001596YS02001600    1.00   0.13  0.00  0.00  0.25  0.01  0.00  0.61  0.03  0.00
  YS02001600YS02001601    1.00   0.13  0.01  0.00  0.87  0.00  0.00  0.00  0.57  0.00
  YS02001601YS02001602    1.00   0.13  0.01  0.00  0.87  0.00  0.00  0.00  0.00  0.00
  YS02001602YS02001605    1.00   0.13  0.00  0.00  0.87  0.00  0.00  0.00  0.00  0.00
  YS02001605YS02001607    1.00   0.13  0.00  0.00  0.87  0.00  0.00  0.00  0.00  0.00
  YS02001607YS02001610    1.00   0.13  0.00  0.00  0.86  0.00  0.00  0.00  0.01  0.00
  YS02001610YS02001613    1.00   0.13  0.00  0.00  0.87  0.00  0.00  0.00  0.00  0.00
  YS02001613YS02001616    1.00   0.13  0.00  0.00  0.87  0.00  0.00  0.00  0.00  0.00
  YS02001616YS02001619    1.00   0.13  0.00  0.00  0.87  0.00  0.00  0.00  0.00  0.00
  YS02001619YS02001622    1.00   0.13  0.00  0.00  0.87  0.00  0.00  0.00  0.27  0.00
  YS02001622YS02001625    1.00   0.13  0.00  0.00  0.87  0.00  0.00  0.00  0.02  0.00
  YS02001625YS02001629    1.00   0.13  0.03  0.00  0.23  0.00  0.61  0.00  0.00  0.00
  YS02001629YS02163301    1.00   0.14  0.01  0.00  0.85  0.00  0.00  0.00  0.00  0.00
  YS02001633YS02163601    1.00   0.00  0.01  0.00  0.99  0.00  0.00  0.00  0.14  0.00
  YS02001641YS02001644    1.00   0.00  0.01  0.00  0.99  0.00  0.00  0.00  0.00  0.00
  YS02001644YS02001647    1.00   0.00  0.15  0.00  0.85  0.00  0.00  0.00  0.00  0.00
  YS02001647YS02001649    1.00   0.00  0.15  0.00  0.62  0.23  0.00  0.00  0.55  0.00
  YS02001649YS02001757    1.00   0.00  0.00  0.00  0.84  0.16  0.00  0.00  0.36  0.00
  YS02001652YS02001649    1.00   0.00  0.00  0.00  0.98  0.02  0.00  0.00  0.69  0.00
  YS02001655YS02001652    1.00   0.00  0.00  0.00  0.26  0.01  0.00  0.74  0.05  0.00
  YS02001658YS02001655    1.00   0.00  0.14  0.00  0.73  0.14  0.00  0.00  0.60  0.00
  YS02001661YS02001658    1.00   0.14  0.00  0.00  0.56  0.30  0.00  0.00  0.63  0.00
  YS02001664YS02001661    1.00   0.13  0.00  0.00  0.79  0.08  0.00  0.00  0.82  0.00
  YS02001745YS02001748    1.00   0.00  0.00  0.00  0.17  0.00  0.00  0.83  0.04  0.00
  YS02001748YS02001751    1.00   0.00  0.00  0.00  0.88  0.12  0.00  0.00  0.71  0.00
  YS02001751YS02001754    1.00   0.00  0.00  0.00  0.24  0.01  0.00  0.76  0.03  0.00
  YS02001754YS02001757    1.00   0.00  0.00  0.00  1.00  0.00  0.00  0.00  0.74  0.00
  YS02001757CaochengTiaoxuchi    1.00   0.00  0.00  0.00  0.95  0.05  0.00  0.00  0.61  0.00
  YS02001759YS02001757    1.00   0.00  0.00  0.00  0.98  0.02  0.00  0.00  0.50  0.00
  YS02001762YS02001759    1.00   0.00  0.00  0.00  1.00  0.00  0.00  0.00  0.04  0.00
  YS02001765YS02001762    1.00   0.00  0.00  0.00  1.00  0.00  0.00  0.00  0.61  0.00
  YS02001767YS02001765    1.00   0.00  0.00  0.00  1.00  0.00  0.00  0.00  0.01  0.00
  YS02001770YS02001767    1.00   0.00  0.00  0.00  1.00  0.00  0.00  0.00  0.00  0.00
  YS02001774YS02001770    1.00   0.00  0.13  0.00  0.71  0.00  0.16  0.00  0.02  0.00
  YS02001779YS02001774    1.00   0.00  0.00  0.00  1.00  0.00  0.00  0.00  0.70  0.00
  YS02001783YS02001784    1.00   0.00  0.16  0.00  0.84  0.00  0.00  0.00  0.54  0.00
  YS02001784YS02001785    1.00   0.00  0.00  0.00  1.00  0.00  0.00  0.00  0.15  0.00
  YS02001786YS02001788    1.00   0.00  0.00  0.00  0.80  0.20  0.00  0.00  0.00  0.00
  YS02001788YS02001790    1.00   0.00  0.00  0.00  0.21  0.79  0.00  0.00  0.77  0.00
  YS02001790YS02001791    1.00   0.00  0.00  0.00  0.01  0.99  0.00  0.00  0.15  0.00
  YS02001791YS02001793    1.00   0.00  0.00  0.00  0.00  1.00  0.00  0.00  0.01  0.00
  YS02001793JiankangQianchi    1.00   0.00  0.00  0.00  0.95  0.05  0.00  0.00  0.95  0.00
  YS02001882YS02001884    1.00   0.14  0.00  0.00  0.85  0.00  0.00  0.00  0.00  0.00
  YS02001884YS02001887    1.00   0.06  0.05  0.00  0.89  0.00  0.00  0.00  0.00  0.00
  YS02001887YS02001890    1.00   0.00  0.00  0.00  0.97  0.00  0.03  0.00  0.00  0.00
  YS02001890YS02001895    1.00   0.00  0.15  0.00  0.85  0.00  0.00  0.00  0.00  0.00
  YS02001895YS02001898    1.00   0.15  0.00  0.00  0.84  0.00  0.01  0.00  0.00  0.00
  YS02001898YS02001901    1.00   0.15  0.00  0.00  0.85  0.00  0.00  0.00  0.00  0.00
  YS02001901YS02001904    1.00   0.15  0.00  0.00  0.85  0.00  0.00  0.00  0.00  0.00
  YS02001904YS02001907    1.00   0.00  0.15  0.00  0.85  0.00  0.00  0.00  0.00  0.00
  YS02001907YS02006553    1.00   0.00  0.02  0.00  0.98  0.00  0.00  0.00  0.00  0.00
  YS02001910YS02001907    1.00   0.00  0.00  0.00  0.97  0.00  0.00  0.03  0.11  0.00
  YS02001915YS02001910    1.00   0.00  0.00  0.00  0.97  0.03  0.00  0.00  0.12  0.00
  YS02001918YS02001915    1.00   0.00  0.01  0.00  0.98  0.02  0.00  0.00  0.69  0.00
  YS02001920YS02001918    1.00   0.00  0.01  0.00  0.99  0.00  0.00  0.00  0.00  0.00
  YS02001923YS02001920    1.00   0.00  0.00  0.00  1.00  0.00  0.00  0.00  0.88  0.00
  YS02001926YS02001923    1.00   0.00  0.07  0.00  0.10  0.00  0.83  0.00  0.00  0.00
  YS02001929YS02001926    1.00   0.00  0.13  0.00  0.87  0.00  0.00  0.00  0.78  0.00
  YS02006553YS02006556    1.00   0.01  0.00  0.00  0.99  0.00  0.00  0.00  0.03  0.00
  YS02006556YS02006558    1.00   0.00  0.00  0.00  1.00  0.00  0.00  0.00  0.00  0.00
  YS02006558YS02006561    1.00   0.16  0.00  0.00  0.09  0.75  0.00  0.00  0.16  0.00
  YS02006561YS02001783    1.00   0.16  0.00  0.00  0.14  0.70  0.00  0.00  0.64  0.00
  YS02163301YS02001633    1.00   0.00  0.14  0.00  0.86  0.00  0.00  0.00  0.00  0.00
  YS02163601YS02164001    1.00   0.00  0.08  0.00  0.92  0.00  0.00  0.00  0.00  0.00
  YS02164001YS02001641    1.00   0.01  0.07  0.00  0.92  0.00  0.00  0.00  0.05  0.00
  
  
  *************************
  Conduit Surcharge Summary
  *************************
  
  ----------------------------------------------------------------------------
                                                           Hours        Hours 
                         --------- Hours Full --------   Above Full   Capacity
  Conduit                Both Ends  Upstream  Dnstream   Normal Flow   Limited
  ----------------------------------------------------------------------------
  WS02003072WS02003073        0.01      0.01      0.01      1.71         0.01
  WS02004403WS02004404        0.01      0.01      0.04      0.01         0.01
  WS02004404WS02004405        0.01      0.04      0.01      3.60         0.01
  WS02004405WS02004406        0.01      0.01      0.01      0.97         0.01
  WS02006109WS02006110        1.12      1.12      2.57      1.22         0.01
  WS02006110WS02006113        0.01      0.01      2.56      0.01         0.01
  WS02006111WS02006112        0.01      0.01      2.72      0.01         0.01
  WS02006112WS02006115        0.01      0.01      1.32      0.01         0.01
  WS02006228WS02006109        2.55      2.57      2.55      2.93         2.55
  WS02006229WS02006228        2.55      2.55      2.55      2.67         2.53
  WS02006230WS02006229        2.59      2.63      2.59      4.16         2.59
  WS02006231WS02006230        1.14      1.14      1.30      3.79         0.01
  WS02006232WS02006231        1.26      1.26      2.57      1.31         0.01
  WS02006234WS02006232        2.51      2.51      2.57      1.29         1.27
  WS02006235WS02006234        1.57      1.58      2.52      3.65         0.01
  WS02006238WS02006235        2.53      2.53      2.57      0.01         0.01
  WS02006239WS02006238        2.55      2.56      2.55      2.53         2.26
  WS02006240WS02006239        2.53      2.55      2.53      2.52         2.08
  WS02006242WS02006240        2.54      2.54      2.57      2.67         0.01
  WS02006243WS02006242        2.53      2.53      2.56      0.01         0.04
  WS02006245WS02006243        2.50      2.50      2.52      1.38         1.56
  WS02006247WS02006245        2.49      2.50      2.49      3.50         2.48
  WS02006248WS02006247        2.48      2.48      2.49      0.01         0.04
  WS02006249WS02006248        2.47      2.48      2.48      3.46         0.01
  WS02006251WS02006249        2.47      2.48      2.48      2.61         2.40
  WS02006252WS02006251        2.67      2.67      2.69      2.67         0.01
  WS02006256WS02006235        3.68      3.72      6.63      1.65         0.01
  YS02001580YS02001583        1.04      1.04      1.13      0.01         0.01
  YS02001583YS02001586        1.05      1.05      1.25      0.01         0.01
  YS02001586YS02001590        1.26      1.26      1.34      0.01         0.01
  YS02001590YS02001593        1.34      1.34      1.37      1.35         0.01
  YS02001593YS02001596        1.36      1.36      1.46      0.01         0.01
  YS02001596YS02001600        1.51      1.51      1.59      0.01         0.01
  YS02001600YS02001601        1.64      1.64      1.86      0.01         0.01
  YS02001601YS02001602        1.78      1.78      1.89      1.59         0.01
  YS02001602YS02001605        1.74      1.74      1.78      2.57         0.01
  YS02001605YS02001607        1.71      1.74      1.71      1.80         1.69
  YS02001607YS02001610        1.35      1.35      1.37      0.01         0.01
  YS02001610YS02001613        1.34      1.34      1.37      0.01         0.01
  YS02001613YS02001616        1.31      1.31      1.34      0.01         0.01
  YS02001616YS02001619        1.29      1.29      1.31      0.19         0.17
  YS02001619YS02001622        1.29      1.29      1.30      1.29         1.16
  YS02001622YS02001625        1.30      1.30      1.45      0.01         0.01
  YS02001625YS02001629        1.24      1.24      1.45      0.01         0.01
  YS02001629YS02163301        1.46      1.46      1.47      0.16         0.15
  YS02001633YS02163601        1.49      1.49      1.53      0.19         0.23
  YS02001641YS02001644        1.41      1.44      1.41      1.92         1.39
  YS02001644YS02001647        1.21      1.21      1.41      0.03         0.01
  YS02001647YS02001649        1.21      1.21      1.31      0.01         0.01
  YS02001649YS02001757        1.31      1.31      1.38      0.15         0.07
  YS02001652YS02001649        1.17      1.17      1.31      0.01         0.01
  YS02001655YS02001652        0.93      0.93      1.16      0.01         0.01
  YS02001658YS02001655        0.52      0.52      0.93      0.01         0.01
  YS02001661YS02001658        0.19      0.19      0.52      0.01         0.01
  YS02001664YS02001661        0.01      0.01      0.25      0.01         0.01
  YS02001745YS02001748        0.02      0.02      0.41      0.01         0.01
  YS02001748YS02001751        0.48      0.48      0.75      0.01         0.01
  YS02001751YS02001754        0.75      0.75      1.06      0.01         0.01
  YS02001754YS02001757        1.11      1.11      1.38      0.01         0.01
  YS02001757CaochengTiaoxuchi        1.33      1.38      2.24      0.58         0.47
  YS02001759YS02001757        1.30      1.30      1.38      0.01         0.02
  YS02001762YS02001759        1.27      1.27      1.30      0.01         0.02
  YS02001765YS02001762        1.23      1.23      1.27      0.01         0.01
  YS02001767YS02001765        1.21      1.21      1.23      0.01         0.03
  YS02001770YS02001767        1.21      1.21      1.21      0.83         0.71
  YS02001774YS02001770        1.19      1.19      1.26      0.01         0.01
  YS02001779YS02001774        1.05      1.05      1.26      0.01         0.01
  YS02001783YS02001784        0.84      0.87      0.84      1.08         0.84
  YS02001784YS02001785        0.69      0.84      0.69      1.46         0.69
  YS02001786YS02001788        0.01      0.69      0.01      1.24         0.01
  YS02001790YS02001791        0.01      0.01      0.01      0.81         0.01
  YS02001793JiankangQianchi        0.01      0.01      7.18      0.01         0.01
  YS02001882YS02001884        0.79      0.79      0.80      0.01         0.01
  YS02001884YS02001887        0.84      0.84      0.85      0.01         0.01
  YS02001887YS02001890        0.87      0.87      0.89      0.26         0.01
  YS02001890YS02001895        0.78      0.78      0.91      0.01         0.01
  YS02001895YS02001898        0.77      0.77      0.78      0.01         0.01
  YS02001898YS02001901        0.78      0.78      0.83      0.01         0.01
  YS02001901YS02001904        0.82      0.82      0.83      0.01         0.01
  YS02001904YS02001907        0.82      0.82      1.21      0.01         0.01
  YS02001907YS02006553        1.47      1.47      1.53      0.01         0.01
  YS02001910YS02001907        0.91      0.91      1.18      0.14         0.14
  YS02001915YS02001910        0.79      0.79      0.91      0.01         0.02
  YS02001918YS02001915        0.68      0.68      0.79      0.01         0.01
  YS02001920YS02001918        0.68      0.68      0.69      0.01         0.01
  YS02001923YS02001920        0.62      0.62      0.69      0.01         0.01
  YS02001926YS02001923        0.28      0.28      0.32      0.08         0.01
  YS02001929YS02001926        0.16      0.16      0.32      0.01         0.01
  YS02006553YS02006556        1.04      1.04      1.20      0.01         0.01
  YS02006556YS02006558        1.12      1.12      1.25      0.01         0.01
  YS02006558YS02006561        0.72      1.02      0.72      1.39         0.72
  YS02006561YS02001783        0.64      0.64      0.87      0.01         0.01
  YS02163301YS02001633        1.47      1.47      1.51      0.01         0.01
  YS02163601YS02164001        1.44      1.44      1.53      0.13         0.01
  YS02164001YS02001641        1.44      1.44      1.44      0.91         0.85
  
  
  ***************
  Pumping Summary
  ***************
  
  ---------------------------------------------------------------------------------------------------------
                                                  Min       Avg       Max     Total     Power    % Time Off
                        Percent   Number of      Flow      Flow      Flow    Volume     Usage    Pump Curve
  Pump                 Utilized   Start-Ups       LPS       LPS       LPS  10^6 ltr     Kw-hr    Low   High
  ---------------------------------------------------------------------------------------------------------
  CC-R1                   28.03          17      0.00    683.00    683.00     5.514    103.92    0.0   26.1
  CC-R2                   24.42          13      0.00    683.00    683.00     4.804     91.26    0.0   23.2
  CC-S1                   44.15          17      0.00    200.00    200.00     2.543     14.20    0.0    0.0
  CC-S2                   34.17          14      0.00    200.00    200.00     1.968     10.58    0.0    0.0
  JK-R1                    9.10          13      0.00   1000.00   1000.00     2.622     26.63    0.0    0.0
  JK-R2                    4.67          13      0.00   1000.00   1000.00     1.345     11.76    0.0    0.0
  JK-S                    20.07          30      0.00    300.00    300.00     1.734     28.26    0.0    0.0
  

  Analysis begun on:  Wed Dec 25 13:04:25 2024
  Analysis ended on:  Wed Dec 25 13:04:27 2024
  Total elapsed time: 00:00:02