
  EPA STORM WATER MANAGEMENT MODEL - VERSION 5.2 (Build 5.2.4)
  PYSWMM TOOLKIT API - VERSION v1.0 (2023-11-27)
  ------------------------------------------------------------

  WARNING 04: minimum elevation drop used for Conduit WS02004404WS02004405
  WARNING 03: negative offset ignored for Link YS02001904YS02001907
  
  ****************
  Analysis Options
  ****************
  Flow Units ............... LPS
  Process Models:
    Rainfall/Runoff ........ YES
    RDII ................... NO
    Snowmelt ............... NO
    Groundwater ............ NO
    Flow Routing ........... YES
    Ponding Allowed ........ NO
    Water Quality .......... NO
  Infiltration Method ...... HORTON
  Flow Routing Method ...... DYNWAVE
  Surcharge Method ......... EXTRAN
  Starting Date ............ 08/28/2015 08:00:00
  Ending Date .............. 08/28/2015 16:00:00
  Antecedent Dry Days ...... 8.0
  Report Time Step ......... 00:01:00
  Wet Time Step ............ 00:01:00
  Dry Time Step ............ 00:01:00
  Routing Time Step ........ 30.00 sec
  Variable Time Step ....... YES
  Maximum Trials ........... 8
  Number of Threads ........ 4
  Head Tolerance ........... 0.001500 m
  
  
  **************************        Volume         Depth
  Runoff Quantity Continuity     hectare-m            mm
  **************************     ---------       -------
  Total Precipitation ......         3.386       102.090
  Evaporation Loss .........         0.000         0.000
  Infiltration Loss ........         0.106         3.188
  Surface Runoff ...........         3.248        97.926
  Final Storage ............         0.033         0.997
  Continuity Error (%) .....        -0.021
  
  
  **************************        Volume        Volume
  Flow Routing Continuity        hectare-m      10^6 ltr
  **************************     ---------     ---------
  Dry Weather Inflow .......         0.025         0.251
  Wet Weather Inflow .......         3.249        32.486
  Groundwater Inflow .......         0.000         0.000
  RDII Inflow ..............         0.000         0.000
  External Inflow ..........         0.083         0.834
  External Outflow .........         1.976        19.764
  Flooding Loss ............         1.450        14.497
  Evaporation Loss .........         0.000         0.000
  Exfiltration Loss ........         0.000         0.000
  Initial Stored Volume ....         0.243         2.431
  Final Stored Volume ......         0.182         1.822
  Continuity Error (%) .....        -0.227
  
  
  *************************
  Highest Continuity Errors
  *************************
  Node YS02001884 (4.66%)
  Node YS02001583 (-3.42%)
  Node WS02006256 (-2.14%)
  
  
  ***************************
  Time-Step Critical Elements
  ***************************
  Link WS02006252WS02006251 (36.28%)
  Link WS02006238WS02006235 (18.35%)
  Link WS02004404WS02004405 (11.38%)
  Link WS02006235WS02006234 (9.93%)
  Link YS02001791YS02001793 (9.38%)
  
  
  ********************************
  Highest Flow Instability Indexes
  ********************************
  Link WS02006113WS02006111 (39)
  Link WS02006238WS02006235 (20)
  Link WS02006111WS02006112 (20)
  Link WS02006252WS02006251 (19)
  Link WS02006256WS02006235 (17)
  
  
  *********************************
  Most Frequent Nonconverging Nodes
  *********************************
  Node CC-1 (14.60%)
  Node CC-2 (14.60%)
  Node JK-1 (14.60%)
  Node JK-2 (14.60%)
  Node WSC (14.60%)
  
  
  *************************
  Routing Time Step Summary
  *************************
  Minimum Time Step           :     0.01 sec
  Average Time Step           :     2.17 sec
  Maximum Time Step           :     7.04 sec
  % of Time in Steady State   :     0.00
  Average Iterations per Step :     3.37
  % of Steps Not Converging   :    14.60
  Time Step Frequencies       :
     30.000 - 13.228 sec      :     0.00 %
     13.228 -  5.833 sec      :     9.64 %
      5.833 -  2.572 sec      :    22.86 %
      2.572 -  1.134 sec      :    24.40 %
      1.134 -  0.500 sec      :    43.09 %
  
  
  ***************************
  Subcatchment Runoff Summary
  ***************************
  
  ------------------------------------------------------------------------------------------------------------------------------
                            Total      Total      Total      Total     Imperv       Perv      Total       Total     Peak  Runoff
                           Precip      Runon       Evap      Infil     Runoff     Runoff     Runoff      Runoff   Runoff   Coeff
  Subcatchment                 mm         mm         mm         mm         mm         mm         mm    10^6 ltr      LPS
  ------------------------------------------------------------------------------------------------------------------------------
  sub60                    102.09       0.00       0.00       1.89      88.64      10.36      99.01        1.30   881.13   0.970
  sub61                    102.09       0.00       0.00       2.75      83.61      14.61      98.22        1.80  1226.87   0.962
  sub62                    102.09       0.00       0.00       1.26      92.64       6.91      99.55        2.73  1732.45   0.975
  sub63                    102.09       0.00       0.00       5.09      71.52      24.52      96.04        2.18  1413.80   0.941
  sub64                    102.09       0.00       0.00       2.57      85.57      12.74      98.32        2.36  1438.25   0.963
  sub65                    102.09       0.00       0.00       2.23      87.57      11.05      98.62        2.71  1617.96   0.966
  sub66                    102.09       0.00       0.00       6.36      71.41      23.25      94.66        4.41  2240.02   0.927
  sub67                    102.09       0.00       0.00       1.21      92.69       6.96      99.65        1.85  1307.20   0.976
  sub68                    102.09       0.00       0.00       2.28      86.62      12.02      98.64        2.71  1777.95   0.966
  sub69                    102.09       0.00       0.00       2.07      86.67      13.25      99.92        3.70  2152.83   0.979
  sub70                    102.09       0.00       0.00       6.96      67.21      27.75      94.97        2.74  1262.47   0.930
  sub71                    102.09       0.00       0.00       1.30      92.60       6.87      99.47        2.60  1554.10   0.974
  sub72                    102.09       0.00       0.00       1.15      93.54       5.99      99.53        1.37   767.15   0.975
  
  
  ******************
  Node Depth Summary
  ******************
  
  ---------------------------------------------------------------------------------
                                 Average  Maximum  Maximum  Time of Max    Reported
                                   Depth    Depth      HGL   Occurrence   Max Depth
  Node                 Type       Meters   Meters   Meters  days hr:min      Meters
  ---------------------------------------------------------------------------------
  WS02003060           JUNCTION     0.22     0.38     5.31     0  02:48        0.38
  WS02003066           JUNCTION     0.19     0.30     5.85     0  02:47        0.30
  WS02003067           JUNCTION     0.48     0.70     6.02     0  02:47        0.70
  WS02003069           JUNCTION     0.25     0.43     5.01     0  02:48        0.43
  WS02003072           JUNCTION     0.31     0.50     4.87     0  02:49        0.50
  WS02003073           JUNCTION     0.17     0.30     4.36     0  02:49        0.30
  WS02004401           JUNCTION     0.56     0.85     6.85     0  02:44        0.85
  WS02004402           JUNCTION     0.60     0.88     6.84     0  02:44        0.88
  WS02004403           JUNCTION     0.62     0.89     6.82     0  02:44        0.89
  WS02004404           JUNCTION     0.70     0.96     6.81     0  02:44        0.96
  WS02004405           JUNCTION     0.69     0.96     6.81     0  02:45        0.96
  WS02004406           JUNCTION     0.71     0.96     6.79     0  02:45        0.96
  WS02004407           JUNCTION     0.16     0.30     6.61     0  02:45        0.30
  WS02004409           JUNCTION     0.37     0.67     6.44     0  02:45        0.67
  WS02004410           JUNCTION     0.39     0.68     6.40     0  02:46        0.68
  WS02004411           JUNCTION     0.42     0.69     6.37     0  02:46        0.69
  WS02004412           JUNCTION     0.44     0.70     6.34     0  02:46        0.70
  WS02004413           JUNCTION     0.60     0.86     6.33     0  02:47        0.86
  WS02006109           JUNCTION     0.61     1.41     8.03     0  02:50        1.04
  WS02006110           JUNCTION     0.62     1.35     7.94     0  02:31        0.98
  WS02006111           JUNCTION     0.16     0.29     6.99     0  03:50        0.29
  WS02006112           JUNCTION     0.71     1.06     6.95     0  02:40        1.06
  WS02006113           JUNCTION     0.25     0.46     7.35     0  03:50        0.46
  WS02006115           JUNCTION     0.44     0.75     6.89     0  02:45        0.75
  WS02006116           JUNCTION     0.53     0.83     6.87     0  02:44        0.83
  WS02006228           JUNCTION     0.60     1.73     8.38     0  02:50        1.09
  WS02006229           JUNCTION     0.57     1.78     8.47     0  02:50        1.11
  WS02006230           JUNCTION     0.57     2.09     8.84     0  02:50        1.25
  WS02006231           JUNCTION     0.39     1.76     8.88     0  02:50        1.10
  WS02006232           JUNCTION     0.52     1.69     8.73     0  02:50        1.29
  WS02006234           JUNCTION     0.44     1.88     9.04     0  02:20        1.69
  WS02006235           JUNCTION     0.48     2.00     9.16     0  03:02        1.92
  WS02006238           JUNCTION     0.51     2.10     9.25     0  03:02        1.97
  WS02006239           JUNCTION     0.48     2.03     9.24     0  03:02        1.87
  WS02006240           JUNCTION     0.45     1.87     9.16     0  03:02        1.71
  WS02006242           JUNCTION     0.52     1.55     8.82     0  02:50        1.55
  WS02006243           JUNCTION     0.43     1.41     8.83     0  03:02        1.35
  WS02006245           JUNCTION     0.44     1.32     8.81     0  02:50        1.20
  WS02006247           JUNCTION     0.47     1.27     8.77     0  02:50        1.19
  WS02006248           JUNCTION     0.43     1.10     8.69     0  02:07        1.10
  WS02006249           JUNCTION     0.47     1.09     8.69     0  02:02        1.09
  WS02006251           JUNCTION     0.47     1.40     9.07     0  02:03        1.13
  WS02006252           JUNCTION     0.33     1.50     9.74     0  00:00        0.71
  WS02006256           JUNCTION     0.99     2.35     9.28     0  00:00        2.35
  WSF200               JUNCTION     0.16     0.29     5.52     0  02:47        0.29
  YS02001580           JUNCTION     0.15     1.05     9.59     0  01:52        1.05
  YS02001583           JUNCTION     0.18     1.14     9.64     0  01:53        1.03
  YS02001586           JUNCTION     0.28     1.13     9.30     0  01:53        1.13
  YS02001590           JUNCTION     0.40     1.40     9.26     0  01:53        1.40
  YS02001593           JUNCTION     0.32     1.35     9.21     0  01:53        1.35
  YS02001596           JUNCTION     0.44     1.70     9.12     0  01:53        1.70
  YS02001600           JUNCTION     0.53     1.87     9.00     0  01:53        1.87
  YS02001601           JUNCTION     0.73     2.06     8.90     0  01:52        2.06
  YS02001602           JUNCTION     0.63     1.87     8.77     0  01:57        1.87
  YS02001605           JUNCTION     0.58     1.78     8.68     0  02:22        1.78
  YS02001607           JUNCTION     0.55     1.65     8.50     0  02:22        1.65
  YS02001610           JUNCTION     0.60     1.68     8.48     0  01:58        1.68
  YS02001613           JUNCTION     0.55     1.67     8.51     0  02:22        1.67
  YS02001616           JUNCTION     0.49     1.61     8.52     0  02:07        1.61
  YS02001619           JUNCTION     0.46     1.61     8.54     0  02:07        1.61
  YS02001622           JUNCTION     0.45     1.59     8.49     0  02:22        1.58
  YS02001625           JUNCTION     0.70     1.78     8.38     0  01:58        1.78
  YS02001629           JUNCTION     0.58     1.85     8.40     0  02:01        1.85
  YS02001633           JUNCTION     0.66     2.06     8.52     0  02:10        2.06
  YS02001641           JUNCTION     0.64     1.96     8.39     0  02:12        1.95
  YS02001644           JUNCTION     0.63     1.92     8.35     0  02:02        1.92
  YS02001647           JUNCTION     0.41     1.78     8.39     0  02:11        1.78
  YS02001649           JUNCTION     0.47     2.04     8.43     0  02:11        2.02
  YS02001652           JUNCTION     0.36     1.94     8.53     0  02:13        1.92
  YS02001655           JUNCTION     0.28     1.80     8.65     0  02:13        1.78
  YS02001658           JUNCTION     0.21     1.63     8.77     0  02:13        1.59
  YS02001661           JUNCTION     0.21     1.48     8.88     0  02:13        1.44
  YS02001664           JUNCTION     0.09     1.07     8.99     0  02:13        1.03
  YS02001745           JUNCTION     0.12     1.05     8.57     0  02:11        1.05
  YS02001748           JUNCTION     0.20     1.44     8.52     0  02:13        1.44
  YS02001751           JUNCTION     0.24     1.60     8.48     0  02:11        1.60
  YS02001754           JUNCTION     0.32     1.84     8.45     0  02:11        1.82
  YS02001757           JUNCTION     0.50     2.13     8.39     0  02:11        2.12
  YS02001759           JUNCTION     0.44     2.14     8.50     0  02:11        2.12
  YS02001762           JUNCTION     0.43     2.09     8.49     0  02:11        2.07
  YS02001765           JUNCTION     0.40     2.03     8.48     0  02:11        2.02
  YS02001767           JUNCTION     0.40     1.98     8.47     0  02:11        1.97
  YS02001770           JUNCTION     0.41     1.95     8.44     0  02:00        1.95
  YS02001774           JUNCTION     0.48     2.05     8.47     0  02:00        2.05
  YS02001779           JUNCTION     0.30     1.68     8.37     0  01:59        1.68
  YS02001783           JUNCTION     0.31     1.27     7.41     0  02:13        1.27
  YS02001784           JUNCTION     0.32     1.14     7.21     0  02:11        1.13
  YS02001786           JUNCTION     0.26     0.90     6.93     0  02:11        0.89
  YS02001788           JUNCTION     0.19     0.63     6.61     0  02:11        0.62
  YS02001790           JUNCTION     0.23     0.73     6.38     0  02:11        0.72
  YS02001791           JUNCTION     0.14     0.44     5.91     0  02:13        0.43
  YS02001793           JUNCTION     0.08     0.31     5.14     0  02:10        0.29
  YS02001882           JUNCTION     0.39     1.71     8.42     0  02:11        1.70
  YS02001884           JUNCTION     0.48     1.80     8.42     0  02:12        1.80
  YS02001887           JUNCTION     0.56     1.88     8.42     0  02:12        1.88
  YS02001890           JUNCTION     0.59     1.81     8.32     0  01:59        1.81
  YS02001895           JUNCTION     0.36     1.57     8.32     0  02:07        1.57
  YS02001898           JUNCTION     0.36     1.57     8.30     0  01:59        1.56
  YS02001901           JUNCTION     0.47     1.68     8.29     0  02:02        1.68
  YS02001904           JUNCTION     0.45     1.64     8.27     0  02:01        1.64
  YS02001907           JUNCTION     0.78     1.96     8.25     0  02:00        1.96
  YS02001910           JUNCTION     0.58     2.01     8.52     0  02:15        2.01
  YS02001915           JUNCTION     0.40     2.00     8.72     0  02:11        2.00
  YS02001918           JUNCTION     0.24     1.73     8.79     0  02:13        1.72
  YS02001920           JUNCTION     0.32     1.83     8.83     0  02:13        1.81
  YS02001923           JUNCTION     0.19     1.60     8.86     0  02:12        1.60
  YS02001926           JUNCTION     0.21     1.46     8.91     0  02:00        1.45
  YS02001929           JUNCTION     0.13     1.32     9.02     0  02:00        1.23
  YS02006553           JUNCTION     0.78     2.00     8.29     0  02:07        2.00
  YS02006556           JUNCTION     0.75     2.00     8.31     0  02:12        1.99
  YS02006558           JUNCTION     0.79     2.07     8.33     0  02:10        2.07
  YS02006561           JUNCTION     0.19     0.94     7.60     0  02:11        0.94
  YS02163301           JUNCTION     0.61     1.93     8.45     0  02:12        1.93
  YS02163601           JUNCTION     0.70     2.05     8.45     0  02:12        2.05
  YS02164001           JUNCTION     0.63     1.96     8.42     0  02:12        1.96
  CC-1                 OUTFALL      0.00     0.00     0.00     0  00:00        0.00
  CC-2                 OUTFALL      0.00     0.00     0.00     0  00:00        0.00
  JK-1                 OUTFALL      0.00     0.00     0.00     0  00:00        0.00
  JK-2                 OUTFALL      0.00     0.00     0.00     0  00:00        0.00
  WSC                  OUTFALL      0.17     0.30     0.97     0  02:49        0.30
  CC-storage           STORAGE      0.92     1.90     7.40     0  02:43        1.90
  JK-storage           STORAGE      2.16     4.24     5.04     0  02:10        4.19
  
  
  *******************
  Node Inflow Summary
  *******************
  
  -------------------------------------------------------------------------------------------------
                                  Maximum  Maximum                  Lateral       Total        Flow
                                  Lateral    Total  Time of Max      Inflow      Inflow     Balance
                                   Inflow   Inflow   Occurrence      Volume      Volume       Error
  Node                 Type           LPS      LPS  days hr:min    10^6 ltr    10^6 ltr     Percent
  -------------------------------------------------------------------------------------------------
  WS02003060           JUNCTION     16.53   552.14     0  02:47       0.476        5.41       0.047
  WS02003066           JUNCTION      0.00   535.56     0  02:47           0        4.94       0.029
  WS02003067           JUNCTION      0.00   535.53     0  02:47           0        4.94       0.088
  WS02003069           JUNCTION      0.32   552.43     0  02:48     0.00922        5.42       0.079
  WS02003072           JUNCTION      0.00   552.35     0  02:48           0        5.42       0.136
  WS02003073           JUNCTION      1.82   554.12     0  02:49      0.0524        5.46       0.111
  WS02004401           JUNCTION      0.00   538.27     0  02:27           0        5.05       0.210
  WS02004402           JUNCTION      0.00   537.17     0  02:27           0        5.04       0.212
  WS02004403           JUNCTION      0.00   536.88     0  02:44           0        5.03       0.206
  WS02004404           JUNCTION      0.16   536.52     0  02:44     0.00467        5.02       0.181
  WS02004405           JUNCTION      0.04   536.64     0  02:45      0.0011        5.01       0.246
  WS02004406           JUNCTION      0.00   537.01     0  02:45           0           5       0.424
  WS02004407           JUNCTION      0.00   536.38     0  02:45           0        4.98       0.028
  WS02004409           JUNCTION      0.00   536.15     0  02:45           0        4.98       0.062
  WS02004410           JUNCTION      0.00   535.91     0  02:46           0        4.98       0.096
  WS02004411           JUNCTION      0.00   535.68     0  02:46           0        4.97       0.120
  WS02004412           JUNCTION      0.00   535.63     0  02:46           0        4.97       0.158
  WS02004413           JUNCTION      0.00   535.59     0  02:47           0        4.96       0.277
  WS02006109           JUNCTION      1.23   561.11     0  02:31      0.0354         5.1       0.185
  WS02006110           JUNCTION      0.00   562.15     0  02:50           0        5.09       0.140
  WS02006111           JUNCTION      0.00   563.22     0  03:48           0        5.08       0.015
  WS02006112           JUNCTION      0.00   543.90     0  03:50           0        5.08       0.356
  WS02006113           JUNCTION      0.00   569.61     0  02:08           0        5.08       0.043
  WS02006115           JUNCTION      0.00   548.30     0  03:10           0        5.06       0.137
  WS02006116           JUNCTION      0.00   539.59     0  03:48           0        5.05       0.123
  WS02006228           JUNCTION      0.00   559.62     0  02:50           0        5.07       0.074
  WS02006229           JUNCTION      0.00   559.70     0  02:50           0        5.07       0.121
  WS02006230           JUNCTION     10.28   592.39     0  02:30       0.296        5.08       0.085
  WS02006231           JUNCTION      0.00   579.79     0  03:39           0        4.78       0.003
  WS02006232           JUNCTION      0.00   578.64     0  03:39           0        4.79       0.182
  WS02006234           JUNCTION      0.00   572.32     0  03:39           0        4.78      -0.303
  WS02006235           JUNCTION      0.00   562.58     0  03:08           0        4.87       0.293
  WS02006238           JUNCTION      0.00   423.49     0  02:45           0        3.92      -0.211
  WS02006239           JUNCTION      0.00   423.30     0  02:45           0        3.85      -0.228
  WS02006240           JUNCTION      0.00   421.15     0  02:45           0        3.82      -0.081
  WS02006242           JUNCTION      0.00   421.34     0  02:45           0        3.81       0.012
  WS02006243           JUNCTION      0.00   420.60     0  02:45           0         3.8      -0.131
  WS02006245           JUNCTION      0.00   420.07     0  02:45           0        3.82       0.449
  WS02006247           JUNCTION      0.00   419.31     0  02:45           0        3.82       0.041
  WS02006248           JUNCTION      0.00   417.87     0  02:45           0        3.82       0.055
  WS02006249           JUNCTION      0.00   459.02     0  00:00           0        4.04       0.413
  WS02006251           JUNCTION      0.08   407.51     0  02:03     0.00222        4.04      -0.011
  WS02006252           JUNCTION      0.00   400.00     0  00:00           0        4.03      -0.225
  WS02006256           JUNCTION      0.00   300.00     0  00:00           0        1.38      -2.097
  WSF200               JUNCTION      0.00   535.57     0  02:47           0        4.94       0.011
  YS02001580           JUNCTION      0.00    76.70     0  01:52           0     0.00422      -1.835
  YS02001583           JUNCTION      0.00   100.07     0  01:52           0       0.016      -3.305
  YS02001586           JUNCTION   1262.47  1262.47     0  02:15        2.74        2.76       0.032
  YS02001590           JUNCTION      0.00   318.09     0  02:38           0        1.73      -0.025
  YS02001593           JUNCTION      0.00   317.99     0  02:08           0        1.73       0.009
  YS02001596           JUNCTION      0.00   318.00     0  02:04           0        1.73      -0.006
  YS02001600           JUNCTION      0.00   318.07     0  02:04           0        1.73       0.019
  YS02001601           JUNCTION   2152.83  2470.23     0  02:14         3.7        5.42       0.011
  YS02001602           JUNCTION      0.00   493.39     0  01:52           0        2.77       0.016
  YS02001605           JUNCTION      0.00   492.86     0  01:52           0        2.58       0.020
  YS02001607           JUNCTION      0.00   492.60     0  01:52           0        2.58       0.078
  YS02001610           JUNCTION      0.00   953.94     0  02:17           0        3.26       0.073
  YS02001613           JUNCTION      0.00   617.99     0  02:17           0        2.49       0.061
  YS02001616           JUNCTION      0.00   617.60     0  02:17           0        2.49       0.015
  YS02001619           JUNCTION   2240.02  2240.02     0  02:14        4.41        6.23       0.000
  YS02001622           JUNCTION      0.00  1053.93     0  02:16           0        5.33       0.002
  YS02001625           JUNCTION      0.00  1505.42     0  02:20           0        5.84       0.177
  YS02001629           JUNCTION      0.00   924.49     0  01:58           0        4.14       0.009
  YS02001633           JUNCTION   1618.16  1618.16     0  02:14        2.72        6.19       0.056
  YS02001641           JUNCTION      0.00  1326.02     0  01:58           0        5.51       0.050
  YS02001644           JUNCTION   1438.29  2732.34     0  02:13        2.36        8.01       0.040
  YS02001647           JUNCTION      0.00  1689.55     0  01:59           0        6.46       0.004
  YS02001649           JUNCTION      0.00  1922.06     0  01:59           0        8.51       0.001
  YS02001652           JUNCTION      0.00  1428.23     0  02:13           0        2.19      -0.051
  YS02001655           JUNCTION      0.15  1428.75     0  02:13     0.00443        2.19       0.018
  YS02001658           JUNCTION      0.00  1428.23     0  02:13           0        2.18      -0.010
  YS02001661           JUNCTION      0.00  1427.78     0  02:13           0        2.18      -0.012
  YS02001664           JUNCTION   1413.80  1413.80     0  02:13        2.18        2.18      -0.006
  YS02001745           JUNCTION    881.13   881.13     0  02:13         1.3         1.3       0.111
  YS02001748           JUNCTION      0.04   884.60     0  02:13      0.0013         1.3      -0.203
  YS02001751           JUNCTION      0.01   884.53     0  02:13    0.000317        1.31      -0.026
  YS02001754           JUNCTION      0.26   886.15     0  02:13     0.00749        1.32      -0.109
  YS02001757           JUNCTION      0.00  3147.29     0  02:11           0        13.4       0.030
  YS02001759           JUNCTION   1226.91  1379.00     0  02:11         1.8        3.72      -0.012
  YS02001762           JUNCTION      0.00   722.47     0  02:05           0        1.91       0.002
  YS02001765           JUNCTION      0.00   722.61     0  02:05           0        1.91       0.003
  YS02001767           JUNCTION      0.54   723.49     0  02:05      0.0154        1.91      -0.001
  YS02001770           JUNCTION   1732.60  1732.60     0  02:13        2.73        2.78      -0.018
  YS02001774           JUNCTION      0.00   852.02     0  02:17           0       0.714       0.157
  YS02001779           JUNCTION      0.01   851.63     0  02:16    0.000144       0.666      -0.131
  YS02001783           JUNCTION      0.00  1178.19     0  02:13           0        5.29       0.005
  YS02001784           JUNCTION      1.06  1179.28     0  02:13      0.0305        5.32       0.009
  YS02001786           JUNCTION      0.06  1179.77     0  02:13     0.00162        5.32       0.014
  YS02001788           JUNCTION      0.07  1181.07     0  02:13     0.00204        5.32       0.006
  YS02001790           JUNCTION      0.15  1187.53     0  02:11     0.00446        5.32       0.024
  YS02001791           JUNCTION      0.00  1306.95     0  02:11           0        5.32      -0.032
  YS02001793           JUNCTION      0.00  1277.86     0  02:11           0        5.32       0.003
  YS02001882           JUNCTION      0.00    30.96     0  01:56           0      0.0133       4.377
  YS02001884           JUNCTION      0.00    35.27     0  01:56           0      0.0498       4.885
  YS02001887           JUNCTION   1307.65  1309.82     0  02:13        1.87         1.9       0.238
  YS02001890           JUNCTION      0.00  1309.30     0  02:13           0        1.86       0.266
  YS02001895           JUNCTION      0.00   518.28     0  02:16           0         1.5       0.117
  YS02001898           JUNCTION      0.00   518.35     0  02:16           0         1.5      -0.007
  YS02001901           JUNCTION      0.00   518.57     0  02:16           0         1.5       0.212
  YS02001904           JUNCTION      0.00   518.45     0  02:16           0        1.51       0.173
  YS02001907           JUNCTION      0.00  3118.02     0  02:13           0        5.67       0.316
  YS02001910           JUNCTION      0.00  1993.16     0  02:16           0        3.99       0.183
  YS02001915           JUNCTION   1554.12  2324.31     0  02:14         2.6        4.08       0.035
  YS02001918           JUNCTION      0.00   773.47     0  02:14           0        1.49       0.015
  YS02001920           JUNCTION      2.87   772.85     0  02:14      0.0827        1.48       0.061
  YS02001923           JUNCTION      0.04   769.22     0  02:14     0.00109        1.38      -0.023
  YS02001926           JUNCTION      0.05   767.97     0  02:14      0.0015        1.37       0.005
  YS02001929           JUNCTION    767.15   767.15     0  02:14        1.37        1.37      -0.029
  YS02006553           JUNCTION      0.00   799.41     0  02:34           0        2.96       0.403
  YS02006556           JUNCTION      0.00   800.25     0  02:34           0        2.97       0.270
  YS02006558           JUNCTION   1778.83  1778.83     0  02:13        2.74         5.5       0.062
  YS02006561           JUNCTION      0.00  1178.47     0  02:12           0        5.29       0.001
  YS02163301           JUNCTION      0.00   924.26     0  01:58           0        4.15       0.038
  YS02163601           JUNCTION      0.11  1326.28     0  01:58     0.00317        5.51       0.093
  YS02164001           JUNCTION      0.00  1326.35     0  01:58           0        5.51       0.036
  CC-1                 OUTFALL       0.00   683.00     0  00:00           0        5.83       0.000
  CC-2                 OUTFALL       0.00   683.00     0  00:00           0        4.41       0.000
  JK-1                 OUTFALL       0.00  1000.00     0  00:00           0        3.28       0.000
  JK-2                 OUTFALL       0.00  1000.00     0  00:00           0       0.792       0.000
  WSC                  OUTFALL       0.00   554.03     0  02:49           0        5.45       0.000
  CC-storage           STORAGE       0.00  3149.02     0  02:11           0        15.6      -0.197
  JK-storage           STORAGE       0.00  1238.00     0  02:11           0        5.47      -0.310
  
  
  **********************
  Node Surcharge Summary
  **********************
  
  Surcharging occurs when water rises above the top of the highest conduit.
  ---------------------------------------------------------------------
                                               Max. Height   Min. Depth
                                   Hours       Above Crown    Below Rim
  Node                 Type      Surcharged         Meters       Meters
  ---------------------------------------------------------------------
  WS02006109           JUNCTION        2.15          0.594        1.226
  WS02006110           JUNCTION        0.63          0.443        1.407
  WS02006112           JUNCTION        0.74          0.064        1.616
  WS02006228           JUNCTION        2.15          0.896        1.304
  WS02006229           JUNCTION        2.15          0.976        1.474
  WS02006230           JUNCTION        0.66          1.011        0.559
  WS02006231           JUNCTION        0.81          1.046        0.484
  WS02006232           JUNCTION        2.20          0.988        0.492
  WS02006234           JUNCTION        1.12          1.161        0.079
  WS02006235           JUNCTION        2.11          1.290        0.000
  WS02006238           JUNCTION        2.15          1.383        0.047
  WS02006239           JUNCTION        2.13          1.290        0.000
  WS02006240           JUNCTION        2.15          1.158        0.232
  WS02006242           JUNCTION        2.21          0.820        0.000
  WS02006243           JUNCTION        2.14          0.704        0.066
  WS02006245           JUNCTION        2.14          0.615        0.235
  WS02006247           JUNCTION        2.15          0.559        0.201
  WS02006248           JUNCTION        2.13          0.380        0.000
  WS02006249           JUNCTION        2.15          0.390        0.000
  WS02006251           JUNCTION        0.90          0.372        0.808
  WS02006252           JUNCTION        2.37          1.100        0.000
  WS02006256           JUNCTION        7.02          2.050        0.000
  YS02001580           JUNCTION        0.96          0.450        0.000
  YS02001583           JUNCTION        0.97          0.500        0.000
  YS02001586           JUNCTION        1.14          0.510        0.000
  YS02001590           JUNCTION        1.22          0.748        0.002
  YS02001593           JUNCTION        1.22          0.729        0.111
  YS02001596           JUNCTION        1.34          0.967        0.103
  YS02001600           JUNCTION        1.49          1.190        0.000
  YS02001601           JUNCTION        1.81          1.440        0.000
  YS02001602           JUNCTION        1.71          1.270        0.000
  YS02001605           JUNCTION        1.66          1.180        0.000
  YS02001607           JUNCTION        1.21          0.652        0.028
  YS02001610           JUNCTION        1.24          0.680        0.000
  YS02001613           JUNCTION        1.21          0.672        0.028
  YS02001616           JUNCTION        1.17          0.610        0.000
  YS02001619           JUNCTION        1.16          0.610        0.000
  YS02001622           JUNCTION        1.16          0.585        0.035
  YS02001625           JUNCTION        1.33          0.780        0.000
  YS02001629           JUNCTION        1.10          0.470        0.000
  YS02001633           JUNCTION        1.37          1.043        0.017
  YS02001641           JUNCTION        1.31          0.958        0.142
  YS02001644           JUNCTION        1.28          0.920        0.000
  YS02001647           JUNCTION        1.06          0.784        0.116
  YS02001649           JUNCTION        1.16          1.044        0.006
  YS02001652           JUNCTION        1.00          0.906        0.224
  YS02001655           JUNCTION        0.80          0.802        0.398
  YS02001658           JUNCTION        0.47          0.629        0.671
  YS02001661           JUNCTION        0.18          0.407        0.983
  YS02001664           JUNCTION        0.01          0.066        1.244
  YS02001745           JUNCTION        0.03          0.049        1.301
  YS02001748           JUNCTION        0.37          0.364        0.826
  YS02001751           JUNCTION        0.64          0.605        0.595
  YS02001754           JUNCTION        0.92          0.789        0.361
  YS02001757           JUNCTION        1.23          1.133        0.077
  YS02001759           JUNCTION        1.14          1.137        0.073
  YS02001762           JUNCTION        1.12          1.093        0.057
  YS02001765           JUNCTION        1.08          1.033        0.067
  YS02001767           JUNCTION        1.05          0.983        0.047
  YS02001770           JUNCTION        1.04          0.920        0.000
  YS02001774           JUNCTION        1.10          1.050        0.000
  YS02001779           JUNCTION        0.89          0.680        0.000
  YS02001783           JUNCTION        0.81          0.466        1.134
  YS02001784           JUNCTION        0.78          0.345        1.145
  YS02001786           JUNCTION        0.64          0.096        1.334
  YS02001882           JUNCTION        0.73          0.707        0.123
  YS02001884           JUNCTION        0.74          0.744        0.126
  YS02001887           JUNCTION        0.79          0.834        0.116
  YS02001890           JUNCTION        0.81          0.760        0.000
  YS02001895           JUNCTION        0.72          0.575        0.175
  YS02001898           JUNCTION        0.71          0.536        0.204
  YS02001901           JUNCTION        0.78          0.677        0.193
  YS02001904           JUNCTION        0.76          0.640        0.210
  YS02001907           JUNCTION        1.12          0.950        0.000
  YS02001910           JUNCTION        0.85          1.013        0.087
  YS02001915           JUNCTION        0.73          1.000        0.000
  YS02001918           JUNCTION        0.62          0.725        0.085
  YS02001920           JUNCTION        0.64          0.827        0.313
  YS02001923           JUNCTION        0.26          0.390        0.430
  YS02001926           JUNCTION        0.29          0.465        0.435
  YS02001929           JUNCTION        0.15          0.324        0.456
  YS02006553           JUNCTION        1.14          1.002        0.188
  YS02006556           JUNCTION        0.97          0.962        0.388
  YS02006558           JUNCTION        0.95          0.967        0.433
  YS02006561           JUNCTION        0.59          0.139        1.011
  YS02163301           JUNCTION        1.34          0.932        0.098
  YS02163601           JUNCTION        1.41          1.054        0.026
  YS02164001           JUNCTION        1.31          0.959        0.141
  
  
  *********************
  Node Flooding Summary
  *********************
  
  Flooding refers to all water that overflows a node, whether it ponds or not.
  --------------------------------------------------------------------------
                                                             Total   Maximum
                                 Maximum   Time of Max       Flood    Ponded
                        Hours       Rate    Occurrence      Volume     Depth
  Node                 Flooded       LPS   days hr:min    10^6 ltr    Meters
  --------------------------------------------------------------------------
  WS02006235              0.01     15.12      0  03:02       0.000     0.000
  WS02006239              0.01      4.29      0  03:02       0.000     0.000
  WS02006242              0.01     23.52      0  03:02       0.000     0.000
  WS02006248              0.02     21.79      0  02:35       0.001     0.000
  WS02006249              0.87    102.26      0  02:03       0.202     0.000
  WS02006252              0.01    245.63      0  00:00       0.000     0.000
  WS02006256              1.27    293.19      0  00:00       0.431     0.000
  YS02001580              0.01     70.39      0  01:52       0.000     0.000
  YS02001583              0.01     16.41      0  01:53       0.000     0.000
  YS02001586              0.78    944.98      0  02:15       1.018     0.000
  YS02001600              0.01      0.54      0  01:53       0.000     0.000
  YS02001601              1.06   2072.27      0  02:14       2.655     0.000
  YS02001602              0.91     62.16      0  02:16       0.187     0.000
  YS02001605              0.01      0.09      0  02:22       0.000     0.000
  YS02001610              0.81    953.81      0  02:17       1.445     0.000
  YS02001616              0.07     14.86      0  02:22       0.000     0.000
  YS02001619              0.18    573.10      0  02:14       0.211     0.000
  YS02001625              0.78   1505.23      0  02:20       2.365     0.000
  YS02001629              0.27    417.72      0  02:14       0.167     0.000
  YS02001644              0.39   2732.12      0  02:13       1.675     0.000
  YS02001770              0.13    757.11      0  02:13       0.189     0.000
  YS02001774              0.01     45.85      0  02:00       0.000     0.000
  YS02001779              0.35    851.41      0  02:17       0.645     0.000
  YS02001890              0.31    792.44      0  02:13       0.354     0.000
  YS02001907              0.56   3117.45      0  02:13       2.885     0.000
  YS02001915              0.09    331.68      0  02:14       0.068     0.000
  
  
  **********************
  Storage Volume Summary
  **********************
  
  ------------------------------------------------------------------------------------------------
                         Average    Avg   Evap  Exfil     Maximum    Max    Time of Max    Maximum
                          Volume   Pcnt   Pcnt   Pcnt      Volume   Pcnt     Occurrence    Outflow
  Storage Unit           1000 m³   Full   Loss   Loss     1000 m³   Full    days hr:min        LPS
  ------------------------------------------------------------------------------------------------
  CC-storage               2.572   40.1    0.0    0.0       5.302   82.7       0  02:43    1783.53
  JK-storage               0.108   37.2    0.0    0.0       0.213   73.0       0  02:10    2300.00
  
  
  ***********************
  Outfall Loading Summary
  ***********************
  
  -----------------------------------------------------------
                         Flow       Avg       Max       Total
                         Freq      Flow      Flow      Volume
  Outfall Node           Pcnt       LPS       LPS    10^6 ltr
  -----------------------------------------------------------
  CC-1                  43.33    683.00    683.00       5.827
  CC-2                  32.00    683.00    683.00       4.410
  JK-1                  17.11   1000.00   1000.00       3.281
  JK-2                   3.79   1000.00   1000.00       0.792
  WSC                   99.95    235.70    554.03       5.455
  -----------------------------------------------------------
  System                39.24   3601.70   3847.72      19.764
  
  
  ********************
  Link Flow Summary
  ********************
  
  -----------------------------------------------------------------------------
                                 Maximum  Time of Max   Maximum    Max/    Max/
                                  |Flow|   Occurrence   |Veloc|    Full    Full
  Link                 Type          LPS  days hr:min     m/sec    Flow   Depth
  -----------------------------------------------------------------------------
  1                    CONDUIT    554.03     0  02:49      2.83    0.19    0.30
  WS02003060WS02003069 CONDUIT    552.11     0  02:48      1.64    0.22    0.34
  WS02003066WSF200     CONDUIT    535.57     0  02:47      2.85    0.09    0.22
  WS02003067WS02003066 CONDUIT    535.56     0  02:47      1.21    0.17    0.42
  WS02003069WS02003072 CONDUIT    552.35     0  02:48      1.37    0.27    0.39
  WS02003072WS02003073 CONDUIT    552.29     0  02:49      1.43    1.19    0.37
  WS02004401WS02004402 CONDUIT    537.17     0  02:27      0.98    0.64    0.86
  WS02004402WS02004403 CONDUIT    536.88     0  02:44      0.97    0.77    0.88
  WS02004403WS02004404 CONDUIT    536.36     0  02:44      0.92    0.39    0.93
  WS02004404WS02004405 CONDUIT    536.60     0  02:45      1.08    5.26    0.96
  WS02004405WS02004406 CONDUIT    537.01     0  02:45      0.99    1.06    0.96
  WS02004406WS02004407 CONDUIT    536.38     0  02:45      1.04    0.24    0.63
  WS02004407WS02004409 CONDUIT    536.15     0  02:45      1.49    0.19    0.48
  WS02004409WS02004410 CONDUIT    535.91     0  02:46      0.97    0.69    0.67
  WS02004410WS02004411 CONDUIT    535.68     0  02:46      0.94    0.73    0.69
  WS02004411WS02004412 CONDUIT    535.63     0  02:46      0.92    0.76    0.69
  WS02004412WS02004413 CONDUIT    535.59     0  02:47      0.82    0.36    0.78
  WS02004413WS02003067 CONDUIT    535.53     0  02:47      1.11    0.23    0.59
  WS02006109WS02006110 CONDUIT    562.15     0  02:50      1.12    1.08    1.00
  WS02006110WS02006113 CONDUIT    569.61     0  02:08      1.38    0.52    0.79
  WS02006111WS02006112 CONDUIT    543.90     0  03:50      1.81    0.26    0.67
  WS02006112WS02006115 CONDUIT    548.30     0  03:10      0.78    0.32    0.87
  WS02006113WS02006111 CONDUIT    563.22     0  03:48      2.47    0.68    0.46
  WS02006115WS02006116 CONDUIT    539.59     0  03:48      0.97    0.69    0.76
  WS02006116WS02004401 CONDUIT    538.27     0  02:27      0.98    0.74    0.84
  WS02006228WS02006109 CONDUIT    559.88     0  02:31      1.11    2.45    1.00
  WS02006229WS02006228 CONDUIT    559.62     0  02:50      1.14    1.85    1.00
  WS02006230WS02006229 CONDUIT    559.70     0  02:50      1.45   12.46    1.00
  WS02006231WS02006230 CONDUIT    582.11     0  02:30      1.58    8.83    1.00
  WS02006232WS02006231 CONDUIT    579.79     0  03:39      1.51    1.21    1.00
  WS02006234WS02006232 CONDUIT    578.64     0  03:39      1.50    1.17    1.00
  WS02006235WS02006234 CONDUIT    572.32     0  03:39      1.49    6.04    1.00
  WS02006238WS02006235 CONDUIT    424.00     0  03:10      1.45    0.95    1.00
  WS02006239WS02006238 CONDUIT    423.49     0  02:45      1.10    1.36    1.00
  WS02006240WS02006239 CONDUIT    423.30     0  02:45      1.24    1.33    1.00
  WS02006242WS02006240 CONDUIT    421.15     0  02:45      1.13    1.67    1.00
  WS02006243WS02006242 CONDUIT    421.34     0  02:45      1.40    0.90    1.00
  WS02006245WS02006243 CONDUIT    420.60     0  02:45      1.45    1.24    1.00
  WS02006247WS02006245 CONDUIT    420.07     0  02:45      1.43    3.33    1.00
  WS02006248WS02006247 CONDUIT    419.31     0  02:45      1.44    0.91    1.00
  WS02006249WS02006248 CONDUIT    417.87     0  02:45      1.36    2.29    1.00
  WS02006251WS02006249 CONDUIT    459.02     0  00:00      1.99    1.32    1.00
  WS02006252WS02006251 CONDUIT    407.44     0  02:03     24.61    1.50    1.00
  WS02006256WS02006235 CONDUIT    288.91     0  00:00      4.23    3.06    1.00
  WSF200WS02003060     CONDUIT    535.61     0  02:47      2.06    0.12    0.28
  YS02001580YS02001583 CONDUIT     76.70     0  01:52      0.47    0.30    1.00
  YS02001583YS02001586 CONDUIT    100.07     0  01:52      0.41    0.15    1.00
  YS02001586YS02001590 CONDUIT    318.09     0  02:38      1.24    0.56    1.00
  YS02001590YS02001593 CONDUIT    317.99     0  02:08      1.12    2.00    1.00
  YS02001593YS02001596 CONDUIT    318.00     0  02:04      1.73    0.50    1.00
  YS02001596YS02001600 CONDUIT    318.07     0  02:04      1.28    0.62    1.00
  YS02001600YS02001601 CONDUIT    318.33     0  02:27      1.13    0.55    1.00
  YS02001601YS02001602 CONDUIT    493.39     0  01:52      1.75    1.78    1.00
  YS02001602YS02001605 CONDUIT    492.86     0  01:52      1.74   10.43    1.00
  YS02001605YS02001607 CONDUIT    492.60     0  01:52      1.74    2.70    1.00
  YS02001607YS02001610 CONDUIT    492.61     0  01:52      0.63    0.47    1.00
  YS02001610YS02001613 CONDUIT    617.80     0  02:17      0.79    0.71    1.00
  YS02001613YS02001616 CONDUIT    617.99     0  02:17      0.79    0.53    1.00
  YS02001616YS02001619 CONDUIT    617.60     0  02:17      0.79    1.07    1.00
  YS02001619YS02001622 CONDUIT   1053.93     0  02:16      1.34    1.55    1.00
  YS02001622YS02001625 CONDUIT   1053.69     0  02:16      1.34    0.56    1.00
  YS02001625YS02001629 CONDUIT    924.49     0  01:58      1.18    0.44    1.00
  YS02001629YS02163301 CONDUIT    924.26     0  01:58      1.18    1.14    1.00
  YS02001633YS02163601 CONDUIT   1326.17     0  01:58      1.69    1.39    1.00
  YS02001641YS02001644 CONDUIT   1326.17     0  01:58      1.69    4.29    1.00
  YS02001644YS02001647 CONDUIT   1689.55     0  01:59      2.18    0.99    1.00
  YS02001647YS02001649 CONDUIT   1704.64     0  01:58      2.29    0.90    1.00
  YS02001649YS02001757 CONDUIT   1919.37     0  01:59      2.45    1.16    1.00
  YS02001652YS02001649 CONDUIT   1427.82     0  02:13      1.82    0.71    1.00
  YS02001655YS02001652 CONDUIT   1428.23     0  02:13      1.82    0.69    1.00
  YS02001658YS02001655 CONDUIT   1428.60     0  02:13      1.82    0.61    1.00
  YS02001661YS02001658 CONDUIT   1428.23     0  02:13      2.20    0.56    1.00
  YS02001664YS02001661 CONDUIT   1427.78     0  02:13      2.15    0.45    1.00
  YS02001745YS02001748 CONDUIT    884.55     0  02:13      2.05    0.34    1.00
  YS02001748YS02001751 CONDUIT    884.52     0  02:13      1.60    0.45    1.00
  YS02001751YS02001754 CONDUIT    885.89     0  02:13      1.37    0.43    1.00
  YS02001754YS02001757 CONDUIT    887.22     0  02:13      1.13    0.36    1.00
  YS02001757CaochengTiaoxuchi CONDUIT   3149.02     0  02:11      4.01    1.36    1.00
  YS02001759YS02001757 CONDUIT   1378.97     0  02:11      1.76    0.98    1.00
  YS02001762YS02001759 CONDUIT    721.96     0  02:05      0.92    0.83    1.00
  YS02001765YS02001762 CONDUIT    722.47     0  02:05      0.92    0.68    1.00
  YS02001767YS02001765 CONDUIT    722.61     0  02:05      0.92    0.91    1.00
  YS02001770YS02001767 CONDUIT    722.95     0  02:05      0.92    2.86    1.00
  YS02001774YS02001770 CONDUIT    852.02     0  02:17      1.08    0.54    1.00
  YS02001779YS02001774 CONDUIT    851.63     0  02:16      1.08    0.43    1.00
  YS02001783YS02001784 CONDUIT   1178.22     0  02:13      2.34    1.62    1.00
  YS02001784YS02001785 CONDUIT   1179.71     0  02:13      2.35    2.75    1.00
  YS02001786YS02001788 CONDUIT   1181.00     0  02:13      2.50    2.28    0.89
  YS02001788YS02001790 CONDUIT   1187.38     0  02:11      2.72    0.88    0.85
  YS02001790YS02001791 CONDUIT   1306.95     0  02:11      3.46    1.42    0.71
  YS02001791YS02001793 CONDUIT   1277.86     0  02:11      6.63    0.55    0.45
  YS02001793JiankangQianchi CONDUIT   1238.00     0  02:11      2.40    0.10    0.65
  YS02001882YS02001884 CONDUIT     30.96     0  01:56      0.17    0.04    1.00
  YS02001884YS02001887 CONDUIT     35.27     0  01:56      0.13    0.05    1.00
  YS02001887YS02001890 CONDUIT   1309.30     0  02:13      1.67    2.24    1.00
  YS02001890YS02001895 CONDUIT    518.28     0  02:16      0.66    0.24    1.00
  YS02001895YS02001898 CONDUIT    518.35     0  02:16      0.66    0.90    1.00
  YS02001898YS02001901 CONDUIT    518.57     0  02:16      0.66    0.33    1.00
  YS02001901YS02001904 CONDUIT    518.45     0  02:16      0.66    0.80    1.00
  YS02001904YS02001907 CONDUIT    518.34     0  02:10      0.66    0.18    1.00
  YS02001907YS02006553 CONDUIT    799.41     0  02:34      0.89    0.94    1.00
  YS02001910YS02001907 CONDUIT   1992.99     0  02:16      2.54    1.12    1.00
  YS02001915YS02001910 CONDUIT   1993.16     0  02:16      2.54    0.99    1.00
  YS02001918YS02001915 CONDUIT    774.26     0  02:14      0.99    0.43    1.00
  YS02001920YS02001918 CONDUIT    773.47     0  02:14      0.98    0.75    1.00
  YS02001923YS02001920 CONDUIT    769.98     0  02:14      0.98    0.35    1.00
  YS02001926YS02001923 CONDUIT    769.18     0  02:14      0.98    1.10    1.00
  YS02001929YS02001926 CONDUIT    767.92     0  02:14      1.06    0.36    1.00
  YS02006553YS02006556 CONDUIT    800.25     0  02:34      1.02    0.68    1.00
  YS02006556YS02006558 CONDUIT    801.63     0  02:34      1.02    0.63    1.00
  YS02006558YS02006561 CONDUIT   1178.47     0  02:12      4.17    2.60    1.00
  YS02006561YS02001783 CONDUIT   1178.19     0  02:13      2.34    0.61    1.00
  YS02163301YS02001633 CONDUIT    924.17     0  01:58      1.18    0.87    1.00
  YS02163601YS02164001 CONDUIT   1326.35     0  01:58      1.69    1.18    1.00
  YS02164001YS02001641 CONDUIT   1326.02     0  01:58      1.69    1.81    1.00
  CC-R1                PUMP       683.00     0  00:00              1.00
  CC-R2                PUMP       683.00     0  00:00              1.00
  CC-S1                PUMP       200.00     0  00:00              1.00
  CC-S2                PUMP       200.00     0  00:00              1.00
  JK-R1                PUMP      1000.00     0  00:00              1.00
  JK-R2                PUMP      1000.00     0  00:00              1.00
  JK-S                 PUMP       300.00     0  00:00              1.00
  
  
  ***************************
  Flow Classification Summary
  ***************************
  
  -------------------------------------------------------------------------------------
                      Adjusted    ---------- Fraction of Time in Flow Class ---------- 
                       /Actual         Up    Down  Sub   Sup   Up    Down  Norm  Inlet 
  Conduit               Length    Dry  Dry   Dry   Crit  Crit  Crit  Crit  Ltd   Ctrl  
  -------------------------------------------------------------------------------------
  1                       1.00   0.00  0.00  0.00  0.00  1.00  0.00  0.00  0.35  0.00
  WS02003060WS02003069    1.00   0.00  0.00  0.00  0.97  0.03  0.00  0.00  0.65  0.00
  WS02003066WSF200        1.00   0.13  0.00  0.00  0.00  0.87  0.00  0.00  0.77  0.00
  WS02003067WS02003066    1.00   0.10  0.02  0.00  0.88  0.00  0.00  0.00  0.00  0.00
  WS02003069WS02003072    1.00   0.00  0.00  0.00  0.99  0.01  0.00  0.00  0.70  0.00
  WS02003072WS02003073    1.00   0.00  0.00  0.00  0.00  0.00  0.00  1.00  0.00  0.00
  WS02004401WS02004402    1.00   0.02  0.00  0.00  0.98  0.00  0.00  0.00  0.00  0.00
  WS02004402WS02004403    1.00   0.02  0.00  0.00  0.97  0.00  0.00  0.00  0.00  0.00
  WS02004403WS02004404    1.00   0.00  0.03  0.00  0.97  0.00  0.00  0.00  0.00  0.00
  WS02004404WS02004405    1.00   0.00  0.00  0.00  1.00  0.00  0.00  0.00  0.01  0.00
  WS02004405WS02004406    1.00   0.00  0.00  0.00  1.00  0.00  0.00  0.00  0.00  0.00
  WS02004406WS02004407    1.00   0.00  0.05  0.00  0.95  0.00  0.00  0.00  0.00  0.00
  WS02004407WS02004409    1.00   0.05  0.00  0.00  0.94  0.01  0.00  0.00  0.95  0.00
  WS02004409WS02004410    1.00   0.05  0.00  0.00  0.95  0.00  0.00  0.00  0.03  0.00
  WS02004410WS02004411    1.00   0.05  0.00  0.00  0.95  0.00  0.00  0.00  0.01  0.00
  WS02004411WS02004412    1.00   0.05  0.00  0.00  0.95  0.00  0.00  0.00  0.00  0.00
  WS02004412WS02004413    1.00   0.05  0.00  0.00  0.94  0.00  0.00  0.00  0.01  0.00
  WS02004413WS02003067    1.00   0.06  0.04  0.00  0.00  0.00  0.90  0.00  0.00  0.00
  WS02006109WS02006110    1.00   0.00  0.01  0.00  0.98  0.00  0.01  0.00  0.00  0.00
  WS02006110WS02006113    1.00   0.01  0.01  0.00  0.98  0.00  0.00  0.00  0.00  0.00
  WS02006111WS02006112    1.00   0.02  0.00  0.00  0.98  0.00  0.00  0.00  0.98  0.00
  WS02006112WS02006115    1.00   0.02  0.00  0.00  0.97  0.00  0.00  0.00  0.00  0.00
  WS02006113WS02006111    1.00   0.02  0.00  0.00  0.00  0.98  0.00  0.00  0.15  0.00
  WS02006115WS02006116    1.00   0.02  0.00  0.00  0.97  0.00  0.00  0.01  0.00  0.00
  WS02006116WS02004401    1.00   0.02  0.00  0.00  0.98  0.00  0.00  0.00  0.00  0.00
  WS02006228WS02006109    1.00   0.00  0.00  0.00  1.00  0.00  0.00  0.00  0.00  0.00
  WS02006229WS02006228    1.00   0.00  0.00  0.00  0.99  0.00  0.00  0.01  0.00  0.00
  WS02006230WS02006229    1.00   0.00  0.00  0.00  0.99  0.00  0.00  0.01  0.02  0.00
  WS02006231WS02006230    1.00   0.00  0.00  0.00  0.29  0.00  0.71  0.00  0.00  0.00
  WS02006232WS02006231    1.00   0.00  0.00  0.00  0.99  0.00  0.01  0.00  0.00  0.00
  WS02006234WS02006232    1.00   0.00  0.00  0.00  1.00  0.00  0.00  0.00  0.05  0.00
  WS02006235WS02006234    1.00   0.00  0.00  0.00  0.91  0.00  0.09  0.00  0.00  0.00
  WS02006238WS02006235    1.00   0.00  0.00  0.00  1.00  0.00  0.00  0.00  0.00  0.00
  WS02006239WS02006238    1.00   0.00  0.00  0.00  1.00  0.00  0.00  0.00  0.15  0.00
  WS02006240WS02006239    1.00   0.00  0.00  0.00  0.73  0.00  0.00  0.27  0.06  0.00
  WS02006242WS02006240    1.00   0.00  0.00  0.00  0.98  0.00  0.01  0.00  0.00  0.00
  WS02006243WS02006242    1.00   0.00  0.00  0.00  0.99  0.00  0.00  0.01  0.53  0.00
  WS02006245WS02006243    1.00   0.00  0.00  0.00  0.77  0.00  0.00  0.23  0.01  0.00
  WS02006247WS02006245    1.00   0.00  0.00  0.00  0.97  0.00  0.00  0.02  0.00  0.00
  WS02006248WS02006247    1.00   0.00  0.00  0.00  0.98  0.00  0.00  0.02  0.43  0.00
  WS02006249WS02006248    1.00   0.00  0.00  0.00  0.48  0.00  0.52  0.00  0.00  0.00
  WS02006251WS02006249    1.00   0.00  0.00  0.00  0.99  0.01  0.00  0.00  0.52  0.00
  WS02006252WS02006251    1.00   0.02  0.48  0.00  0.11  0.00  0.39  0.00  0.00  0.00
  WS02006256WS02006235    1.00   0.00  0.00  0.00  0.98  0.02  0.00  0.00  0.00  0.00
  WSF200WS02003060        1.00   0.00  0.13  0.00  0.31  0.57  0.00  0.00  0.54  0.00
  YS02001580YS02001583    1.00   0.23  0.53  0.00  0.24  0.00  0.00  0.00  0.62  0.00
  YS02001583YS02001586    1.00   0.40  0.30  0.00  0.30  0.00  0.00  0.00  0.62  0.00
  YS02001586YS02001590    1.00   0.13  0.00  0.00  0.47  0.04  0.00  0.37  0.35  0.00
  YS02001590YS02001593    1.00   0.13  0.01  0.00  0.17  0.00  0.70  0.00  0.00  0.00
  YS02001593YS02001596    1.00   0.13  0.00  0.00  0.19  0.01  0.00  0.67  0.02  0.00
  YS02001596YS02001600    1.00   0.13  0.00  0.00  0.24  0.01  0.00  0.61  0.04  0.00
  YS02001600YS02001601    1.00   0.13  0.01  0.00  0.87  0.00  0.00  0.00  0.57  0.00
  YS02001601YS02001602    1.00   0.13  0.01  0.00  0.87  0.00  0.00  0.00  0.00  0.00
  YS02001602YS02001605    1.00   0.13  0.00  0.00  0.87  0.00  0.00  0.00  0.00  0.00
  YS02001605YS02001607    1.00   0.13  0.00  0.00  0.87  0.00  0.00  0.00  0.00  0.00
  YS02001607YS02001610    1.00   0.13  0.00  0.00  0.86  0.00  0.00  0.00  0.01  0.00
  YS02001610YS02001613    1.00   0.13  0.00  0.00  0.87  0.00  0.00  0.00  0.00  0.00
  YS02001613YS02001616    1.00   0.13  0.00  0.00  0.87  0.00  0.00  0.00  0.00  0.00
  YS02001616YS02001619    1.00   0.13  0.00  0.00  0.87  0.00  0.00  0.00  0.00  0.00
  YS02001619YS02001622    1.00   0.13  0.00  0.00  0.87  0.00  0.00  0.00  0.26  0.00
  YS02001622YS02001625    1.00   0.13  0.00  0.00  0.87  0.00  0.00  0.00  0.03  0.00
  YS02001625YS02001629    1.00   0.13  0.04  0.00  0.22  0.00  0.62  0.00  0.00  0.00
  YS02001629YS02163301    1.00   0.14  0.01  0.00  0.85  0.00  0.00  0.00  0.00  0.00
  YS02001633YS02163601    1.00   0.00  0.01  0.00  0.99  0.00  0.00  0.00  0.14  0.00
  YS02001641YS02001644    1.00   0.00  0.01  0.00  0.99  0.00  0.00  0.00  0.00  0.00
  YS02001644YS02001647    1.00   0.00  0.16  0.00  0.84  0.00  0.00  0.00  0.00  0.00
  YS02001647YS02001649    1.00   0.00  0.16  0.00  0.60  0.24  0.00  0.00  0.55  0.00
  YS02001649YS02001757    1.00   0.00  0.00  0.00  0.81  0.19  0.00  0.00  0.37  0.00
  YS02001652YS02001649    1.00   0.00  0.00  0.00  0.97  0.03  0.00  0.00  0.69  0.00
  YS02001655YS02001652    1.00   0.00  0.00  0.00  0.25  0.01  0.00  0.74  0.06  0.00
  YS02001658YS02001655    1.00   0.00  0.14  0.00  0.71  0.15  0.00  0.00  0.63  0.00
  YS02001661YS02001658    1.00   0.14  0.00  0.00  0.54  0.32  0.00  0.00  0.63  0.00
  YS02001664YS02001661    1.00   0.13  0.00  0.00  0.78  0.09  0.00  0.00  0.83  0.00
  YS02001745YS02001748    1.00   0.00  0.00  0.00  0.15  0.00  0.00  0.84  0.04  0.00
  YS02001748YS02001751    1.00   0.00  0.00  0.00  0.86  0.14  0.00  0.00  0.72  0.00
  YS02001751YS02001754    1.00   0.00  0.00  0.00  0.23  0.01  0.00  0.76  0.04  0.00
  YS02001754YS02001757    1.00   0.00  0.00  0.00  1.00  0.00  0.00  0.00  0.75  0.00
  YS02001757CaochengTiaoxuchi    1.00   0.00  0.00  0.00  0.96  0.04  0.00  0.00  0.65  0.00
  YS02001759YS02001757    1.00   0.00  0.00  0.00  0.98  0.02  0.00  0.00  0.52  0.00
  YS02001762YS02001759    1.00   0.00  0.00  0.00  1.00  0.00  0.00  0.00  0.02  0.00
  YS02001765YS02001762    1.00   0.00  0.00  0.00  1.00  0.00  0.00  0.00  0.61  0.00
  YS02001767YS02001765    1.00   0.00  0.00  0.00  1.00  0.00  0.00  0.00  0.01  0.00
  YS02001770YS02001767    1.00   0.00  0.00  0.00  1.00  0.00  0.00  0.00  0.00  0.00
  YS02001774YS02001770    1.00   0.00  0.13  0.00  0.71  0.00  0.16  0.00  0.02  0.00
  YS02001779YS02001774    1.00   0.00  0.00  0.00  1.00  0.00  0.00  0.00  0.71  0.00
  YS02001783YS02001784    1.00   0.00  0.16  0.00  0.84  0.00  0.00  0.00  0.54  0.00
  YS02001784YS02001785    1.00   0.00  0.00  0.00  1.00  0.00  0.00  0.00  0.15  0.00
  YS02001786YS02001788    1.00   0.00  0.00  0.00  0.79  0.21  0.00  0.00  0.00  0.00
  YS02001788YS02001790    1.00   0.00  0.00  0.00  0.21  0.79  0.00  0.00  0.77  0.00
  YS02001790YS02001791    1.00   0.00  0.00  0.00  0.01  0.99  0.00  0.00  0.15  0.00
  YS02001791YS02001793    1.00   0.00  0.00  0.00  0.00  1.00  0.00  0.00  0.02  0.00
  YS02001793JiankangQianchi    1.00   0.00  0.00  0.00  0.99  0.01  0.00  0.00  0.92  0.00
  YS02001882YS02001884    1.00   0.14  0.01  0.00  0.85  0.00  0.00  0.00  0.00  0.00
  YS02001884YS02001887    1.00   0.06  0.05  0.00  0.89  0.00  0.00  0.00  0.00  0.00
  YS02001887YS02001890    1.00   0.00  0.00  0.00  0.97  0.00  0.03  0.00  0.00  0.00
  YS02001890YS02001895    1.00   0.00  0.15  0.00  0.85  0.00  0.00  0.00  0.00  0.00
  YS02001895YS02001898    1.00   0.15  0.00  0.00  0.83  0.00  0.01  0.00  0.00  0.00
  YS02001898YS02001901    1.00   0.15  0.00  0.00  0.85  0.00  0.00  0.00  0.01  0.00
  YS02001901YS02001904    1.00   0.15  0.00  0.00  0.85  0.00  0.00  0.00  0.00  0.00
  YS02001904YS02001907    1.00   0.00  0.15  0.00  0.85  0.00  0.00  0.00  0.00  0.00
  YS02001907YS02006553    1.00   0.00  0.02  0.00  0.98  0.00  0.00  0.00  0.00  0.00
  YS02001910YS02001907    1.00   0.00  0.00  0.00  0.97  0.00  0.00  0.03  0.11  0.00
  YS02001915YS02001910    1.00   0.00  0.00  0.00  0.97  0.03  0.00  0.00  0.13  0.00
  YS02001918YS02001915    1.00   0.00  0.01  0.00  0.98  0.02  0.00  0.00  0.70  0.00
  YS02001920YS02001918    1.00   0.00  0.01  0.00  0.99  0.00  0.00  0.00  0.00  0.00
  YS02001923YS02001920    1.00   0.00  0.00  0.00  1.00  0.00  0.00  0.00  0.89  0.00
  YS02001926YS02001923    1.00   0.00  0.07  0.00  0.09  0.00  0.83  0.00  0.00  0.00
  YS02001929YS02001926    1.00   0.00  0.13  0.00  0.87  0.00  0.00  0.00  0.79  0.00
  YS02006553YS02006556    1.00   0.01  0.00  0.00  0.99  0.00  0.00  0.00  0.03  0.00
  YS02006556YS02006558    1.00   0.00  0.00  0.00  1.00  0.00  0.00  0.00  0.00  0.00
  YS02006558YS02006561    1.00   0.16  0.00  0.00  0.09  0.75  0.00  0.00  0.16  0.00
  YS02006561YS02001783    1.00   0.16  0.00  0.00  0.13  0.71  0.00  0.00  0.65  0.00
  YS02163301YS02001633    1.00   0.00  0.14  0.00  0.86  0.00  0.00  0.00  0.00  0.00
  YS02163601YS02164001    1.00   0.00  0.08  0.00  0.92  0.00  0.00  0.00  0.00  0.00
  YS02164001YS02001641    1.00   0.01  0.07  0.00  0.92  0.00  0.00  0.00  0.05  0.00
  
  
  *************************
  Conduit Surcharge Summary
  *************************
  
  ----------------------------------------------------------------------------
                                                           Hours        Hours 
                         --------- Hours Full --------   Above Full   Capacity
  Conduit                Both Ends  Upstream  Dnstream   Normal Flow   Limited
  ----------------------------------------------------------------------------
  WS02003072WS02003073        0.01      0.01      0.01      1.13         0.01
  WS02004404WS02004405        0.01      0.01      0.01      3.38         0.01
  WS02004405WS02004406        0.01      0.01      0.01      0.67         0.01
  WS02006109WS02006110        0.63      0.63      2.19      0.78         0.01
  WS02006110WS02006113        0.01      0.01      2.16      0.01         0.01
  WS02006111WS02006112        0.01      0.01      2.46      0.01         0.01
  WS02006112WS02006115        0.01      0.01      0.74      0.01         0.01
  WS02006228WS02006109        2.15      2.19      2.15      2.65         2.15
  WS02006229WS02006228        2.15      2.15      2.15      2.46         2.14
  WS02006230WS02006229        2.29      2.41      2.29      4.14         2.29
  WS02006231WS02006230        0.65      0.65      0.88      3.63         0.01
  WS02006232WS02006231        0.81      0.81      2.20      0.88         0.01
  WS02006234WS02006232        2.09      2.09      2.20      0.86         0.84
  WS02006235WS02006234        1.11      1.12      2.10      3.42         0.02
  WS02006238WS02006235        2.12      2.12      2.21      0.01         0.01
  WS02006239WS02006238        2.15      2.19      2.15      2.24         1.95
  WS02006240WS02006239        2.12      2.15      2.13      2.24         1.84
  WS02006242WS02006240        2.15      2.15      2.23      2.36         0.01
  WS02006243WS02006242        2.16      2.16      2.21      0.01         0.06
  WS02006245WS02006243        2.14      2.15      2.14      1.53         1.53
  WS02006247WS02006245        2.14      2.17      2.14      3.13         2.12
  WS02006248WS02006247        2.14      2.14      2.15      0.01         0.06
  WS02006249WS02006248        2.13      2.13      2.15      3.05         0.01
  WS02006251WS02006249        2.14      2.15      2.15      2.30         2.07
  WS02006252WS02006251        2.35      2.35      2.37      2.35         0.01
  WS02006256WS02006235        3.47      3.52      6.92      1.31         0.01
  YS02001580YS02001583        0.96      0.96      1.05      0.01         0.01
  YS02001583YS02001586        0.97      0.97      1.14      0.01         0.01
  YS02001586YS02001590        1.15      1.15      1.22      0.01         0.01
  YS02001590YS02001593        1.22      1.22      1.24      1.22         0.01
  YS02001593YS02001596        1.24      1.24      1.34      0.01         0.01
  YS02001596YS02001600        1.40      1.40      1.49      0.01         0.01
  YS02001600YS02001601        1.55      1.55      1.81      0.01         0.01
  YS02001601YS02001602        1.71      1.71      1.84      1.49         0.01
  YS02001602YS02001605        1.66      1.66      1.71      2.57         0.01
  YS02001605YS02001607        1.62      1.66      1.63      1.74         1.60
  YS02001607YS02001610        1.21      1.21      1.24      0.01         0.01
  YS02001610YS02001613        1.21      1.21      1.24      0.01         0.01
  YS02001613YS02001616        1.17      1.17      1.21      0.01         0.01
  YS02001616YS02001619        1.16      1.16      1.17      0.17         0.14
  YS02001619YS02001622        1.16      1.16      1.16      1.19         1.08
  YS02001622YS02001625        1.16      1.16      1.33      0.01         0.01
  YS02001625YS02001629        1.10      1.10      1.33      0.01         0.01
  YS02001629YS02163301        1.33      1.33      1.34      0.17         0.18
  YS02001633YS02163601        1.37      1.37      1.41      0.28         0.30
  YS02001641YS02001644        1.28      1.31      1.28      1.87         1.25
  YS02001644YS02001647        1.06      1.06      1.28      0.01         0.01
  YS02001647YS02001649        1.06      1.06      1.16      0.01         0.01
  YS02001649YS02001757        1.16      1.16      1.23      0.16         0.08
  YS02001652YS02001649        1.02      1.02      1.16      0.01         0.01
  YS02001655YS02001652        0.80      0.80      1.00      0.01         0.01
  YS02001658YS02001655        0.47      0.47      0.80      0.01         0.01
  YS02001661YS02001658        0.18      0.18      0.47      0.01         0.01
  YS02001664YS02001661        0.01      0.01      0.23      0.01         0.01
  YS02001745YS02001748        0.03      0.03      0.37      0.01         0.01
  YS02001748YS02001751        0.42      0.42      0.64      0.01         0.01
  YS02001751YS02001754        0.64      0.64      0.92      0.01         0.01
  YS02001754YS02001757        0.97      0.97      1.23      0.01         0.01
  YS02001757CaochengTiaoxuchi        1.21      1.23      2.13      0.57         0.49
  YS02001759YS02001757        1.14      1.14      1.23      0.01         0.01
  YS02001762YS02001759        1.12      1.12      1.14      0.01         0.01
  YS02001765YS02001762        1.08      1.08      1.12      0.01         0.01
  YS02001767YS02001765        1.05      1.05      1.08      0.01         0.02
  YS02001770YS02001767        1.04      1.04      1.05      0.76         0.64
  YS02001774YS02001770        1.04      1.04      1.10      0.01         0.01
  YS02001779YS02001774        0.89      0.89      1.10      0.01         0.01
  YS02001783YS02001784        0.78      0.81      0.78      1.02         0.78
  YS02001784YS02001785        0.64      0.78      0.64      1.36         0.64
  YS02001786YS02001788        0.01      0.64      0.01      1.17         0.01
  YS02001790YS02001791        0.01      0.01      0.01      0.76         0.01
  YS02001793JiankangQianchi        0.01      0.01      7.13      0.01         0.01
  YS02001882YS02001884        0.73      0.73      0.74      0.01         0.01
  YS02001884YS02001887        0.78      0.78      0.79      0.01         0.01
  YS02001887YS02001890        0.81      0.81      0.83      0.24         0.01
  YS02001890YS02001895        0.72      0.72      0.85      0.01         0.01
  YS02001895YS02001898        0.71      0.71      0.72      0.01         0.01
  YS02001898YS02001901        0.72      0.72      0.77      0.01         0.01
  YS02001901YS02001904        0.76      0.76      0.77      0.01         0.01
  YS02001904YS02001907        0.76      0.76      1.14      0.01         0.01
  YS02001907YS02006553        1.37      1.37      1.44      0.01         0.01
  YS02001910YS02001907        0.85      0.85      1.12      0.13         0.13
  YS02001915YS02001910        0.73      0.73      0.85      0.01         0.01
  YS02001918YS02001915        0.62      0.62      0.73      0.01         0.01
  YS02001920YS02001918        0.62      0.62      0.64      0.01         0.01
  YS02001923YS02001920        0.57      0.57      0.64      0.01         0.01
  YS02001926YS02001923        0.26      0.26      0.29      0.07         0.01
  YS02001929YS02001926        0.15      0.15      0.29      0.01         0.01
  YS02006553YS02006556        0.97      0.97      1.14      0.01         0.01
  YS02006556YS02006558        1.06      1.06      1.17      0.01         0.01
  YS02006558YS02006561        0.66      0.95      0.66      1.30         0.66
  YS02006561YS02001783        0.59      0.59      0.81      0.01         0.01
  YS02163301YS02001633        1.34      1.34      1.39      0.01         0.01
  YS02163601YS02164001        1.31      1.31      1.41      0.14         0.01
  YS02164001YS02001641        1.31      1.31      1.31      0.86         0.78
  
  
  ***************
  Pumping Summary
  ***************
  
  ---------------------------------------------------------------------------------------------------------
                                                  Min       Avg       Max     Total     Power    % Time Off
                        Percent   Number of      Flow      Flow      Flow    Volume     Usage    Pump Curve
  Pump                 Utilized   Start-Ups       LPS       LPS       LPS  10^6 ltr     Kw-hr    Low   High
  ---------------------------------------------------------------------------------------------------------
  CC-R1                   29.67          16      0.00    683.00    683.00     5.837    108.80    0.0   31.8
  CC-R2                   22.46          15      0.00    683.00    683.00     4.419     83.59    0.0   25.8
  CC-S1                   36.03          13      0.00    200.00    200.00     2.076     11.24    0.0    0.0
  CC-S2                   34.01          15      0.00    200.00    200.00     1.959     10.65    0.0    0.0
  JK-R1                   11.41          20      0.00   1000.00   1000.00     3.285     37.29    0.0    0.0
  JK-R2                    2.74           6      0.00   1000.00   1000.00     0.790      8.02    0.0    0.0
  JK-S                    15.91          37      0.00    300.00    300.00     1.374     19.56    0.0    0.0
  

  Analysis begun on:  Wed Dec 25 13:04:11 2024
  Analysis ended on:  Wed Dec 25 13:04:13 2024
  Total elapsed time: 00:00:02