
  EPA STORM WATER MANAGEMENT MODEL - VERSION 5.2 (Build 5.2.4)
  PYSWMM TOOLKIT API - VERSION v1.0 (2023-11-27)
  ------------------------------------------------------------

  WARNING 04: minimum elevation drop used for Conduit WS02004404WS02004405
  WARNING 03: negative offset ignored for Link YS02001904YS02001907
  
  ****************
  Analysis Options
  ****************
  Flow Units ............... LPS
  Process Models:
    Rainfall/Runoff ........ YES
    RDII ................... NO
    Snowmelt ............... NO
    Groundwater ............ NO
    Flow Routing ........... YES
    Ponding Allowed ........ NO
    Water Quality .......... NO
  Infiltration Method ...... HORTON
  Flow Routing Method ...... DYNWAVE
  Surcharge Method ......... EXTRAN
  Starting Date ............ 08/28/2015 08:00:00
  Ending Date .............. 08/28/2015 16:00:00
  Antecedent Dry Days ...... 8.0
  Report Time Step ......... 00:01:00
  Wet Time Step ............ 00:01:00
  Dry Time Step ............ 00:01:00
  Routing Time Step ........ 30.00 sec
  Variable Time Step ....... YES
  Maximum Trials ........... 8
  Number of Threads ........ 4
  Head Tolerance ........... 0.001500 m
  
  
  **************************        Volume         Depth
  Runoff Quantity Continuity     hectare-m            mm
  **************************     ---------       -------
  Total Precipitation ......         3.382       101.952
  Evaporation Loss .........         0.000         0.000
  Infiltration Loss ........         0.103         3.096
  Surface Runoff ...........         3.247        97.887
  Final Storage ............         0.033         0.996
  Continuity Error (%) .....        -0.027
  
  
  **************************        Volume        Volume
  Flow Routing Continuity        hectare-m      10^6 ltr
  **************************     ---------     ---------
  Dry Weather Inflow .......         0.025         0.251
  Wet Weather Inflow .......         3.247        32.470
  Groundwater Inflow .......         0.000         0.000
  RDII Inflow ..............         0.000         0.000
  External Inflow ..........         0.083         0.834
  External Outflow .........         1.849        18.487
  Flooding Loss ............         1.474        14.736
  Evaporation Loss .........         0.000         0.000
  Exfiltration Loss ........         0.000         0.000
  Initial Stored Volume ....         0.243         2.431
  Final Stored Volume ......         0.281         2.810
  Continuity Error (%) .....        -0.135
  
  
  *************************
  Highest Continuity Errors
  *************************
  Node YS02001583 (-9.72%)
  Node YS02001884 (5.04%)
  
  
  ***************************
  Time-Step Critical Elements
  ***************************
  Link WS02006252WS02006251 (44.50%)
  Link WS02004404WS02004405 (11.49%)
  Link WS02006238WS02006235 (10.07%)
  Link WS02006235WS02006234 (9.89%)
  Link YS02001791YS02001793 (9.46%)
  
  
  ********************************
  Highest Flow Instability Indexes
  ********************************
  Link WS02006113WS02006111 (47)
  Link WS02006111WS02006112 (29)
  Link WS02006252WS02006251 (18)
  Link YS02001602YS02001605 (17)
  Link YS02001607YS02001610 (17)
  
  
  *********************************
  Most Frequent Nonconverging Nodes
  *********************************
  Node CC-1 (15.51%)
  Node CC-2 (15.51%)
  Node JK-1 (15.51%)
  Node JK-2 (15.51%)
  Node WSC (15.51%)
  
  
  *************************
  Routing Time Step Summary
  *************************
  Minimum Time Step           :     0.03 sec
  Average Time Step           :     2.01 sec
  Maximum Time Step           :     7.04 sec
  % of Time in Steady State   :     0.00
  Average Iterations per Step :     3.29
  % of Steps Not Converging   :    15.51
  Time Step Frequencies       :
     30.000 - 13.228 sec      :     0.00 %
     13.228 -  5.833 sec      :     9.16 %
      5.833 -  2.572 sec      :    20.26 %
      2.572 -  1.134 sec      :    20.21 %
      1.134 -  0.500 sec      :    50.36 %
  
  
  ***************************
  Subcatchment Runoff Summary
  ***************************
  
  ------------------------------------------------------------------------------------------------------------------------------
                            Total      Total      Total      Total     Imperv       Perv      Total       Total     Peak  Runoff
                           Precip      Runon       Evap      Infil     Runoff     Runoff     Runoff      Runoff   Runoff   Coeff
  Subcatchment                 mm         mm         mm         mm         mm         mm         mm    10^6 ltr      LPS
  ------------------------------------------------------------------------------------------------------------------------------
  sub60                    101.95       0.00       0.00       1.87      88.53      10.37      98.90        1.30   839.08   0.970
  sub61                    101.95       0.00       0.00       2.71      83.50      14.63      98.13        1.80  1162.77   0.963
  sub62                    101.95       0.00       0.00       1.25      92.52       6.91      99.44        2.72  1646.31   0.975
  sub63                    101.95       0.00       0.00       4.98      71.43      24.60      96.02        2.18  1301.83   0.942
  sub64                    101.95       0.00       0.00       2.52      85.46      12.78      98.24        2.36  1339.28   0.964
  sub65                    101.95       0.00       0.00       2.18      87.46      11.08      98.53        2.71  1500.37   0.966
  sub66                    101.95       0.00       0.00       6.12      71.32      23.45      94.76        4.42  1967.35   0.929
  sub67                    101.95       0.00       0.00       1.20      92.57       6.96      99.53        1.85  1268.25   0.976
  sub68                    101.95       0.00       0.00       2.24      86.50      12.03      98.54        2.71  1686.15   0.967
  sub69                    101.95       0.00       0.00       2.01      86.56      13.29      99.85        3.70  1999.52   0.979
  sub70                    101.95       0.00       0.00       6.65      67.13      28.02      95.15        2.75  1107.32   0.933
  sub71                    101.95       0.00       0.00       1.28      92.48       6.88      99.36        2.60  1451.63   0.975
  sub72                    101.95       0.00       0.00       1.14      93.42       6.00      99.42        1.37   701.89   0.975
  
  
  ******************
  Node Depth Summary
  ******************
  
  ---------------------------------------------------------------------------------
                                 Average  Maximum  Maximum  Time of Max    Reported
                                   Depth    Depth      HGL   Occurrence   Max Depth
  Node                 Type       Meters   Meters   Meters  days hr:min      Meters
  ---------------------------------------------------------------------------------
  WS02003060           JUNCTION     0.24     0.38     5.31     0  02:01        0.38
  WS02003066           JUNCTION     0.20     0.30     5.85     0  02:03        0.30
  WS02003067           JUNCTION     0.51     0.70     6.02     0  02:03        0.70
  WS02003069           JUNCTION     0.27     0.43     5.01     0  02:04        0.43
  WS02003072           JUNCTION     0.34     0.50     4.87     0  02:04        0.50
  WS02003073           JUNCTION     0.19     0.30     4.36     0  02:05        0.30
  WS02004401           JUNCTION     0.60     0.85     6.85     0  02:00        0.85
  WS02004402           JUNCTION     0.63     0.88     6.84     0  02:01        0.88
  WS02004403           JUNCTION     0.65     0.89     6.82     0  02:01        0.89
  WS02004404           JUNCTION     0.73     0.96     6.81     0  02:01        0.96
  WS02004405           JUNCTION     0.72     0.96     6.81     0  02:01        0.95
  WS02004406           JUNCTION     0.74     0.96     6.79     0  02:01        0.95
  WS02004407           JUNCTION     0.18     0.30     6.61     0  02:01        0.29
  WS02004409           JUNCTION     0.41     0.67     6.44     0  02:02        0.67
  WS02004410           JUNCTION     0.43     0.68     6.40     0  02:02        0.68
  WS02004411           JUNCTION     0.45     0.69     6.37     0  02:02        0.69
  WS02004412           JUNCTION     0.47     0.70     6.34     0  02:02        0.70
  WS02004413           JUNCTION     0.63     0.86     6.33     0  02:02        0.86
  WS02006109           JUNCTION     0.65     1.29     7.90     0  02:04        1.01
  WS02006110           JUNCTION     0.66     1.34     7.92     0  02:04        1.03
  WS02006111           JUNCTION     0.18     0.29     6.99     0  01:43        0.29
  WS02006112           JUNCTION     0.75     1.10     6.99     0  02:43        1.05
  WS02006113           JUNCTION     0.27     0.46     7.35     0  02:44        0.46
  WS02006115           JUNCTION     0.48     0.75     6.89     0  02:00        0.75
  WS02006116           JUNCTION     0.57     0.83     6.87     0  02:00        0.83
  WS02006228           JUNCTION     0.65     1.34     7.99     0  02:42        1.08
  WS02006229           JUNCTION     0.62     1.41     8.10     0  02:42        1.10
  WS02006230           JUNCTION     0.62     1.61     8.36     0  02:42        1.22
  WS02006231           JUNCTION     0.42     1.31     8.44     0  02:42        1.19
  WS02006232           JUNCTION     0.56     1.46     8.50     0  02:42        1.25
  WS02006234           JUNCTION     0.48     1.52     8.68     0  04:00        1.44
  WS02006235           JUNCTION     0.52     1.67     8.84     0  02:04        1.67
  WS02006238           JUNCTION     0.55     1.75     8.89     0  02:04        1.75
  WS02006239           JUNCTION     0.52     1.81     9.02     0  02:04        1.81
  WS02006240           JUNCTION     0.49     1.75     9.04     0  02:04        1.75
  WS02006242           JUNCTION     0.56     1.55     8.82     0  02:04        1.55
  WS02006243           JUNCTION     0.47     1.48     8.90     0  02:04        1.48
  WS02006245           JUNCTION     0.48     1.43     8.92     0  02:04        1.43
  WS02006247           JUNCTION     0.50     1.35     8.85     0  02:04        1.35
  WS02006248           JUNCTION     0.47     1.10     8.69     0  01:40        1.10
  WS02006249           JUNCTION     0.50     1.09     8.69     0  01:39        1.09
  WS02006251           JUNCTION     0.50     1.52     9.19     0  02:27        1.14
  WS02006252           JUNCTION     0.36     1.50     9.74     0  00:00        0.70
  WS02006256           JUNCTION     0.97     2.35     9.28     0  00:00        2.35
  WSF200               JUNCTION     0.18     0.29     5.52     0  02:00        0.29
  YS02001580           JUNCTION     0.14     1.05     9.59     0  01:31        1.05
  YS02001583           JUNCTION     0.17     1.14     9.64     0  01:31        0.99
  YS02001586           JUNCTION     0.26     1.13     9.30     0  01:31        1.13
  YS02001590           JUNCTION     0.36     1.40     9.26     0  01:31        1.38
  YS02001593           JUNCTION     0.30     1.39     9.25     0  01:31        1.30
  YS02001596           JUNCTION     0.40     1.72     9.14     0  01:31        1.67
  YS02001600           JUNCTION     0.46     1.87     9.00     0  01:31        1.87
  YS02001601           JUNCTION     0.65     2.06     8.90     0  01:31        2.06
  YS02001602           JUNCTION     0.56     1.87     8.77     0  01:31        1.87
  YS02001605           JUNCTION     0.52     1.78     8.68     0  01:31        1.78
  YS02001607           JUNCTION     0.51     1.68     8.53     0  01:31        1.66
  YS02001610           JUNCTION     0.56     1.68     8.48     0  01:31        1.68
  YS02001613           JUNCTION     0.52     1.70     8.54     0  01:31        1.67
  YS02001616           JUNCTION     0.45     1.61     8.52     0  01:31        1.61
  YS02001619           JUNCTION     0.43     1.61     8.54     0  01:31        1.61
  YS02001622           JUNCTION     0.42     1.62     8.52     0  01:31        1.58
  YS02001625           JUNCTION     0.68     1.78     8.38     0  01:31        1.78
  YS02001629           JUNCTION     0.54     1.85     8.40     0  01:31        1.85
  YS02001633           JUNCTION     0.63     2.07     8.52     0  01:34        2.03
  YS02001641           JUNCTION     0.61     1.99     8.43     0  02:03        1.99
  YS02001644           JUNCTION     0.61     1.92     8.35     0  01:34        1.92
  YS02001647           JUNCTION     0.40     1.80     8.41     0  01:35        1.76
  YS02001649           JUNCTION     0.46     2.05     8.44     0  01:35        2.01
  YS02001652           JUNCTION     0.35     2.16     8.76     0  01:34        1.88
  YS02001655           JUNCTION     0.28     2.20     9.05     0  01:34        2.08
  YS02001658           JUNCTION     0.21     2.30     9.44     0  01:34        2.30
  YS02001661           JUNCTION     0.21     2.46     9.86     0  01:35        1.33
  YS02001664           JUNCTION     0.07     1.74     9.67     0  01:35        0.86
  YS02001745           JUNCTION     0.11     2.35     9.87     0  01:34        1.54
  YS02001748           JUNCTION     0.20     2.27     9.35     0  01:34        1.36
  YS02001751           JUNCTION     0.25     2.20     9.08     0  01:34        1.53
  YS02001754           JUNCTION     0.32     2.20     8.81     0  01:34        1.76
  YS02001757           JUNCTION     0.50     2.21     8.47     0  01:35        2.07
  YS02001759           JUNCTION     0.43     2.20     8.57     0  01:35        2.09
  YS02001762           JUNCTION     0.42     2.15     8.55     0  01:35        2.05
  YS02001765           JUNCTION     0.40     2.10     8.55     0  01:33        2.00
  YS02001767           JUNCTION     0.39     2.03     8.52     0  01:33        1.95
  YS02001770           JUNCTION     0.40     1.95     8.44     0  01:33        1.95
  YS02001774           JUNCTION     0.47     2.05     8.47     0  01:33        2.05
  YS02001779           JUNCTION     0.30     1.68     8.37     0  01:33        1.68
  YS02001783           JUNCTION     0.28     1.72     7.86     0  01:33        1.26
  YS02001784           JUNCTION     0.28     1.48     7.55     0  01:33        1.14
  YS02001786           JUNCTION     0.24     1.12     7.15     0  01:33        0.89
  YS02001788           JUNCTION     0.17     0.63     6.61     0  01:36        0.63
  YS02001790           JUNCTION     0.20     0.73     6.37     0  01:40        0.73
  YS02001791           JUNCTION     0.13     0.44     5.91     0  01:39        0.44
  YS02001793           JUNCTION     0.07     0.30     5.13     0  01:51        0.30
  YS02001882           JUNCTION     0.36     1.83     8.55     0  01:32        1.69
  YS02001884           JUNCTION     0.45     1.93     8.55     0  01:32        1.78
  YS02001887           JUNCTION     0.53     2.00     8.53     0  01:32        1.87
  YS02001890           JUNCTION     0.56     1.81     8.32     0  01:32        1.81
  YS02001895           JUNCTION     0.32     1.75     8.50     0  01:32        1.56
  YS02001898           JUNCTION     0.33     1.77     8.51     0  01:32        1.57
  YS02001901           JUNCTION     0.45     1.78     8.39     0  01:32        1.68
  YS02001904           JUNCTION     0.43     1.67     8.30     0  01:32        1.63
  YS02001907           JUNCTION     0.75     1.96     8.25     0  01:32        1.96
  YS02001910           JUNCTION     0.55     2.10     8.61     0  01:32        2.01
  YS02001915           JUNCTION     0.37     2.00     8.72     0  01:32        2.00
  YS02001918           JUNCTION     0.22     1.81     8.88     0  01:33        1.71
  YS02001920           JUNCTION     0.30     2.14     9.15     0  01:34        1.80
  YS02001923           JUNCTION     0.17     2.03     9.29     0  01:34        1.57
  YS02001926           JUNCTION     0.20     1.90     9.35     0  01:34        1.42
  YS02001929           JUNCTION     0.12     1.78     9.47     0  01:34        1.20
  YS02006553           JUNCTION     0.75     2.11     8.39     0  01:33        1.99
  YS02006556           JUNCTION     0.73     2.24     8.55     0  01:33        1.98
  YS02006558           JUNCTION     0.77     2.33     8.59     0  01:33        2.03
  YS02006561           JUNCTION     0.18     1.58     8.24     0  01:33        0.93
  YS02163301           JUNCTION     0.57     1.94     8.46     0  01:34        1.92
  YS02163601           JUNCTION     0.67     2.08     8.48     0  01:34        2.06
  YS02164001           JUNCTION     0.60     2.02     8.48     0  02:03        2.02
  CC-1                 OUTFALL      0.00     0.00     0.00     0  00:00        0.00
  CC-2                 OUTFALL      0.00     0.00     0.00     0  00:00        0.00
  JK-1                 OUTFALL      0.00     0.00     0.00     0  00:00        0.00
  JK-2                 OUTFALL      0.00     0.00     0.00     0  00:00        0.00
  WSC                  OUTFALL      0.19     0.30     0.97     0  02:05        0.30
  CC-storage           STORAGE      1.07     1.91     7.41     0  02:22        1.91
  JK-storage           STORAGE      3.15     4.23     5.03     0  01:55        4.20
  
  
  *******************
  Node Inflow Summary
  *******************
  
  -------------------------------------------------------------------------------------------------
                                  Maximum  Maximum                  Lateral       Total        Flow
                                  Lateral    Total  Time of Max      Inflow      Inflow     Balance
                                   Inflow   Inflow   Occurrence      Volume      Volume       Error
  Node                 Type           LPS      LPS  days hr:min    10^6 ltr    10^6 ltr     Percent
  -------------------------------------------------------------------------------------------------
  WS02003060           JUNCTION     16.53   550.05     0  02:03       0.476        5.76       0.048
  WS02003066           JUNCTION      0.00   533.15     0  02:03           0        5.29       0.030
  WS02003067           JUNCTION      0.00   533.09     0  02:03           0        5.29       0.085
  WS02003069           JUNCTION      0.32   549.95     0  02:03     0.00922        5.77       0.086
  WS02003072           JUNCTION      0.00   549.44     0  02:04           0        5.76       0.145
  WS02003073           JUNCTION      1.82   551.27     0  02:04      0.0524        5.81       0.120
  WS02004401           JUNCTION      0.00   537.80     0  02:00           0         5.4       0.197
  WS02004402           JUNCTION      0.00   537.40     0  02:00           0        5.39       0.200
  WS02004403           JUNCTION      0.00   536.59     0  02:01           0        5.38       0.194
  WS02004404           JUNCTION      0.16   536.60     0  02:01     0.00467        5.37       0.162
  WS02004405           JUNCTION      0.04   536.31     0  02:01      0.0011        5.36       0.239
  WS02004406           JUNCTION      0.00   536.45     0  02:01           0        5.35       0.398
  WS02004407           JUNCTION      0.00   535.86     0  02:01           0        5.33       0.028
  WS02004409           JUNCTION      0.00   535.52     0  02:01           0        5.33       0.063
  WS02004410           JUNCTION      0.00   534.07     0  02:02           0        5.32       0.097
  WS02004411           JUNCTION      0.00   534.04     0  02:02           0        5.32       0.120
  WS02004412           JUNCTION      0.00   533.46     0  02:02           0        5.31       0.156
  WS02004413           JUNCTION      0.00   533.33     0  02:02           0        5.31       0.270
  WS02006109           JUNCTION      1.23   564.70     0  02:42      0.0354        5.45       0.177
  WS02006110           JUNCTION      0.00   565.04     0  02:42           0        5.44       0.124
  WS02006111           JUNCTION      0.00   560.67     0  01:42           0        5.43       0.017
  WS02006112           JUNCTION      0.00   543.37     0  01:43           0        5.43       0.339
  WS02006113           JUNCTION      0.00   583.15     0  02:04           0        5.43       0.034
  WS02006115           JUNCTION      0.00   562.50     0  02:43           0        5.41       0.129
  WS02006116           JUNCTION      0.00   540.27     0  01:55           0         5.4       0.049
  WS02006228           JUNCTION      0.00   562.66     0  02:42           0        5.41       0.069
  WS02006229           JUNCTION      0.00   562.83     0  02:42           0        5.42       0.099
  WS02006230           JUNCTION     10.28   589.42     0  01:55       0.296        5.42       0.071
  WS02006231           JUNCTION      0.00   573.40     0  02:15           0        5.12      -0.048
  WS02006232           JUNCTION      0.00   572.68     0  02:15           0        5.14       0.224
  WS02006234           JUNCTION      0.00   568.20     0  02:15           0        5.12      -0.224
  WS02006235           JUNCTION      0.00   561.92     0  02:15           0        5.18       0.194
  WS02006238           JUNCTION      0.00   424.13     0  02:30           0        4.31      -0.180
  WS02006239           JUNCTION      0.00   424.01     0  02:30           0        4.28      -0.079
  WS02006240           JUNCTION      0.00   420.78     0  02:30           0        4.25      -0.036
  WS02006242           JUNCTION      0.00   420.70     0  02:30           0        4.23      -0.030
  WS02006243           JUNCTION      0.00   420.04     0  02:30           0        4.23       0.007
  WS02006245           JUNCTION      0.00   420.53     0  02:30           0        4.24       0.284
  WS02006247           JUNCTION      0.00   421.16     0  01:40           0        4.24       0.026
  WS02006248           JUNCTION      0.00   421.30     0  01:40           0        4.24       0.065
  WS02006249           JUNCTION      0.00   459.02     0  00:00           0        4.47       0.274
  WS02006251           JUNCTION      0.08   407.31     0  01:39     0.00222        4.47      -0.036
  WS02006252           JUNCTION      0.00   400.00     0  00:00           0        4.47      -0.018
  WS02006256           JUNCTION      0.00   300.00     0  00:00           0        1.31      -0.949
  WSF200               JUNCTION      0.00   533.20     0  02:03           0        5.28       0.012
  YS02001580           JUNCTION      0.00   150.99     0  01:31           0     0.00486       2.859
  YS02001583           JUNCTION      0.00   256.36     0  01:31           0      0.0154      -8.862
  YS02001586           JUNCTION   1107.32  1107.32     0  01:42        2.75        2.76       0.056
  YS02001590           JUNCTION      0.00   318.08     0  01:57           0        1.73      -0.018
  YS02001593           JUNCTION      0.00   318.14     0  02:15           0        1.73       0.006
  YS02001596           JUNCTION      0.00   318.04     0  01:55           0        1.73      -0.004
  YS02001600           JUNCTION      0.00   318.18     0  02:03           0        1.73       0.002
  YS02001601           JUNCTION   1999.52  2316.83     0  01:40         3.7        5.42       0.003
  YS02001602           JUNCTION      0.00   572.42     0  01:31           0        2.72       0.011
  YS02001605           JUNCTION      0.00   572.37     0  01:31           0        2.51       0.013
  YS02001607           JUNCTION      0.00   572.36     0  01:31           0        2.51       0.073
  YS02001610           JUNCTION      0.00   953.89     0  01:45           0        3.22       0.063
  YS02001613           JUNCTION      0.00   617.46     0  01:45           0        2.42       0.056
  YS02001616           JUNCTION      0.00   617.47     0  01:45           0        2.42       0.019
  YS02001619           JUNCTION   1967.35  1967.35     0  01:41        4.42        6.12      -0.004
  YS02001622           JUNCTION      0.00  1053.96     0  01:40           0        5.27      -0.003
  YS02001625           JUNCTION      0.00  1505.06     0  01:47           0        5.74       0.167
  YS02001629           JUNCTION      0.00   950.28     0  01:31           0        3.97      -0.005
  YS02001633           JUNCTION   1500.57  1500.57     0  01:40        2.72        5.98       0.050
  YS02001641           JUNCTION      0.00  1429.04     0  01:33           0        5.29       0.049
  YS02001644           JUNCTION   1339.32  2303.61     0  01:39        2.36        7.71       0.039
  YS02001647           JUNCTION      0.00  1911.92     0  01:33           0        6.13       0.001
  YS02001649           JUNCTION      0.00  2176.27     0  01:33           0        8.26       0.003
  YS02001652           JUNCTION      0.00  1301.04     0  01:38           0        2.19      -0.085
  YS02001655           JUNCTION      0.15  1301.20     0  01:38     0.00443        2.19      -0.048
  YS02001658           JUNCTION      0.00  1301.25     0  01:38           0         2.2      -0.103
  YS02001661           JUNCTION      0.00  1299.92     0  01:38           0         2.2       0.021
  YS02001664           JUNCTION   1301.83  1301.83     0  01:39        2.18        2.18      -0.040
  YS02001745           JUNCTION    839.08   839.08     0  01:38         1.3        1.31       0.141
  YS02001748           JUNCTION      0.04   844.70     0  01:38      0.0013        1.31      -0.260
  YS02001751           JUNCTION      0.01   845.05     0  01:38    0.000317        1.31       0.025
  YS02001754           JUNCTION      0.26   845.11     0  01:38     0.00749        1.33      -0.143
  YS02001757           JUNCTION      0.00  3525.44     0  01:35           0        13.2       0.024
  YS02001759           JUNCTION   1162.81  1561.71     0  01:35         1.8        3.72      -0.016
  YS02001762           JUNCTION      0.00   878.31     0  01:35           0        1.92      -0.006
  YS02001765           JUNCTION      0.00   879.42     0  01:35           0        1.92       0.011
  YS02001767           JUNCTION      0.54   879.42     0  01:35      0.0154        1.92      -0.005
  YS02001770           JUNCTION   1646.47  1646.47     0  01:39        2.73        2.78      -0.018
  YS02001774           JUNCTION      0.00   851.56     0  01:42           0       0.738       0.121
  YS02001779           JUNCTION      0.01   851.54     0  01:42    0.000144        0.69      -0.105
  YS02001783           JUNCTION      0.00  1175.40     0  01:36           0        5.22       0.004
  YS02001784           JUNCTION      1.06  1177.48     0  01:36      0.0305        5.25       0.009
  YS02001786           JUNCTION      0.06  1177.40     0  01:37     0.00162        5.26       0.013
  YS02001788           JUNCTION      0.07  1179.92     0  01:37     0.00204        5.26       0.006
  YS02001790           JUNCTION      0.15  1188.12     0  01:37     0.00446        5.26       0.020
  YS02001791           JUNCTION      0.00  1301.09     0  01:39           0        5.26      -0.032
  YS02001793           JUNCTION      0.00  1251.87     0  01:41           0        5.26       0.005
  YS02001882           JUNCTION      0.00   101.08     0  01:32           0      0.0134       4.735
  YS02001884           JUNCTION      0.00   137.13     0  01:32           0      0.0502       5.306
  YS02001887           JUNCTION   1268.70  1268.81     0  01:38        1.86         1.9       0.228
  YS02001890           JUNCTION      0.00  1268.63     0  01:38           0        1.86       0.269
  YS02001895           JUNCTION      0.00   545.13     0  01:33           0        1.48       0.124
  YS02001898           JUNCTION      0.00   544.63     0  01:33           0        1.48       0.001
  YS02001901           JUNCTION      0.00   543.62     0  01:33           0        1.48       0.226
  YS02001904           JUNCTION      0.00   542.59     0  01:33           0        1.48       0.182
  YS02001907           JUNCTION      0.00  3028.20     0  01:39           0        5.68       0.298
  YS02001910           JUNCTION      0.00  1993.21     0  01:41           0        4.01       0.177
  YS02001915           JUNCTION   1451.65  2153.91     0  01:40         2.6         4.1       0.032
  YS02001918           JUNCTION      0.00   705.81     0  01:40           0        1.53       0.009
  YS02001920           JUNCTION      2.87   705.68     0  01:40      0.0827        1.51       0.047
  YS02001923           JUNCTION      0.04   783.38     0  01:33     0.00109        1.41      -0.048
  YS02001926           JUNCTION      0.05  1075.54     0  01:33      0.0015        1.39      -0.034
  YS02001929           JUNCTION    701.89   866.54     0  01:34        1.37        1.37      -0.058
  YS02006553           JUNCTION      0.00   791.82     0  02:07           0        2.91       0.406
  YS02006556           JUNCTION      0.00   793.26     0  02:10           0        2.93       0.266
  YS02006558           JUNCTION   1687.03  1687.03     0  01:39        2.74        5.45       0.065
  YS02006561           JUNCTION      0.00  1185.83     0  01:33           0        5.22      -0.003
  YS02163301           JUNCTION      0.00   914.91     0  01:33           0        3.95       0.031
  YS02163601           JUNCTION      0.11  1429.20     0  01:33     0.00317        5.28       0.088
  YS02164001           JUNCTION      0.00  1429.21     0  01:33           0        5.28       0.035
  CC-1                 OUTFALL       0.00   683.00     0  00:00           0        4.79       0.000
  CC-2                 OUTFALL       0.00   683.00     0  00:00           0           4       0.000
  JK-1                 OUTFALL       0.00  1000.00     0  00:00           0         2.6       0.000
  JK-2                 OUTFALL       0.00  1000.00     0  00:00           0         1.3       0.000
  WSC                  OUTFALL       0.00   551.07     0  02:05           0         5.8       0.000
  CC-storage           STORAGE       0.00  3523.34     0  01:35           0        15.5      -0.073
  JK-storage           STORAGE       0.00  1248.36     0  02:07           0        5.41       0.149
  
  
  **********************
  Node Surcharge Summary
  **********************
  
  Surcharging occurs when water rises above the top of the highest conduit.
  ---------------------------------------------------------------------
                                               Max. Height   Min. Depth
                                   Hours       Above Crown    Below Rim
  Node                 Type      Surcharged         Meters       Meters
  ---------------------------------------------------------------------
  WS02006109           JUNCTION        2.44          0.466        1.354
  WS02006110           JUNCTION        0.67          0.426        1.424
  WS02006112           JUNCTION        0.73          0.105        1.575
  WS02006228           JUNCTION        2.44          0.511        1.689
  WS02006229           JUNCTION        2.44          0.606        1.844
  WS02006230           JUNCTION        0.70          0.532        1.038
  WS02006231           JUNCTION        0.86          0.603        0.927
  WS02006232           JUNCTION        2.46          0.756        0.724
  WS02006234           JUNCTION        1.27          0.803        0.437
  WS02006235           JUNCTION        2.40          0.961        0.329
  WS02006238           JUNCTION        2.44          1.030        0.400
  WS02006239           JUNCTION        2.43          1.069        0.221
  WS02006240           JUNCTION        2.45          1.037        0.353
  WS02006242           JUNCTION        2.45          0.820        0.000
  WS02006243           JUNCTION        2.37          0.770        0.000
  WS02006245           JUNCTION        2.36          0.723        0.127
  WS02006247           JUNCTION        2.36          0.637        0.123
  WS02006248           JUNCTION        2.35          0.380        0.000
  WS02006249           JUNCTION        2.35          0.390        0.000
  WS02006251           JUNCTION        0.95          0.494        0.686
  WS02006252           JUNCTION        2.50          1.100        0.000
  WS02006256           JUNCTION        5.59          2.050        0.000
  YS02001580           JUNCTION        0.97          0.450        0.000
  YS02001583           JUNCTION        0.98          0.500        0.000
  YS02001586           JUNCTION        1.18          0.510        0.000
  YS02001590           JUNCTION        1.27          0.750        0.000
  YS02001593           JUNCTION        1.28          0.769        0.071
  YS02001596           JUNCTION        1.41          0.988        0.082
  YS02001600           JUNCTION        1.58          1.190        0.000
  YS02001601           JUNCTION        1.79          1.440        0.000
  YS02001602           JUNCTION        1.73          1.270        0.000
  YS02001605           JUNCTION        1.70          1.180        0.000
  YS02001607           JUNCTION        1.30          0.680        0.000
  YS02001610           JUNCTION        1.34          0.680        0.000
  YS02001613           JUNCTION        1.30          0.698        0.002
  YS02001616           JUNCTION        1.25          0.610        0.000
  YS02001619           JUNCTION        1.23          0.610        0.000
  YS02001622           JUNCTION        1.24          0.620        0.000
  YS02001625           JUNCTION        1.45          0.780        0.000
  YS02001629           JUNCTION        1.17          0.470        0.000
  YS02001633           JUNCTION        1.50          1.045        0.015
  YS02001641           JUNCTION        1.47          0.990        0.110
  YS02001644           JUNCTION        1.44          0.920        0.000
  YS02001647           JUNCTION        1.22          0.805        0.095
  YS02001649           JUNCTION        1.40          1.050        0.000
  YS02001652           JUNCTION        1.15          1.130        0.000
  YS02001655           JUNCTION        0.91          1.200        0.000
  YS02001658           JUNCTION        0.49          1.300        0.000
  YS02001661           JUNCTION        0.19          1.390        0.000
  YS02001664           JUNCTION        0.01          0.742        0.568
  YS02001745           JUNCTION        0.01          1.350        0.000
  YS02001748           JUNCTION        0.39          1.190        0.000
  YS02001751           JUNCTION        0.75          1.200        0.000
  YS02001754           JUNCTION        1.07          1.150        0.000
  YS02001757           JUNCTION        1.48          1.210        0.000
  YS02001759           JUNCTION        1.38          1.203        0.007
  YS02001762           JUNCTION        1.35          1.150        0.000
  YS02001765           JUNCTION        1.29          1.100        0.000
  YS02001767           JUNCTION        1.26          1.030        0.000
  YS02001770           JUNCTION        1.22          0.920        0.000
  YS02001774           JUNCTION        1.32          1.050        0.000
  YS02001779           JUNCTION        1.05          0.680        0.000
  YS02001783           JUNCTION        0.81          0.920        0.680
  YS02001784           JUNCTION        0.78          0.680        0.810
  YS02001786           JUNCTION        0.66          0.325        1.105
  YS02001882           JUNCTION        0.74          0.830        0.000
  YS02001884           JUNCTION        0.75          0.870        0.000
  YS02001887           JUNCTION        0.80          0.945        0.005
  YS02001890           JUNCTION        0.81          0.760        0.000
  YS02001895           JUNCTION        0.73          0.750        0.000
  YS02001898           JUNCTION        0.72          0.740        0.000
  YS02001901           JUNCTION        0.78          0.782        0.088
  YS02001904           JUNCTION        0.77          0.669        0.181
  YS02001907           JUNCTION        1.05          0.950        0.000
  YS02001910           JUNCTION        0.85          1.100        0.000
  YS02001915           JUNCTION        0.74          1.000        0.000
  YS02001918           JUNCTION        0.64          0.810        0.000
  YS02001920           JUNCTION        0.66          1.140        0.000
  YS02001923           JUNCTION        0.27          0.820        0.000
  YS02001926           JUNCTION        0.30          0.900        0.000
  YS02001929           JUNCTION        0.17          0.780        0.000
  YS02006553           JUNCTION        1.09          1.108        0.082
  YS02006556           JUNCTION        0.94          1.199        0.151
  YS02006558           JUNCTION        0.93          1.225        0.175
  YS02006561           JUNCTION        0.61          0.782        0.368
  YS02163301           JUNCTION        1.48          0.944        0.086
  YS02163601           JUNCTION        1.54          1.080        0.000
  YS02164001           JUNCTION        1.46          1.017        0.083
  
  
  *********************
  Node Flooding Summary
  *********************
  
  Flooding refers to all water that overflows a node, whether it ponds or not.
  --------------------------------------------------------------------------
                                                             Total   Maximum
                                 Maximum   Time of Max       Flood    Ponded
                        Hours       Rate    Occurrence      Volume     Depth
  Node                 Flooded       LPS   days hr:min    10^6 ltr    Meters
  --------------------------------------------------------------------------
  WS02006242              0.01     12.77      0  02:26       0.000     0.000
  WS02006243              0.01      0.84      0  02:04       0.000     0.000
  WS02006248              0.02     17.23      0  01:55       0.001     0.000
  WS02006249              0.91    101.63      0  01:39       0.216     0.000
  WS02006252              0.01    245.63      0  00:00       0.000     0.000
  WS02006256              1.21    293.19      0  00:00       0.421     0.000
  YS02001580              0.01     99.72      0  01:31       0.000     0.000
  YS02001583              0.01    224.21      0  01:31       0.000     0.000
  YS02001586              0.81    789.88      0  01:42       1.020     0.000
  YS02001590              0.01      1.79      0  01:31       0.000     0.000
  YS02001600              0.01      3.32      0  01:31       0.000     0.000
  YS02001601              1.09   1918.80      0  01:40       2.708     0.000
  YS02001602              1.02     62.01      0  02:15       0.209     0.000
  YS02001605              0.01      5.08      0  01:31       0.000     0.000
  YS02001607              0.01      9.78      0  01:31       0.000     0.000
  YS02001610              0.91    953.27      0  01:45       1.525     0.000
  YS02001616              0.08     47.75      0  01:31       0.000     0.000
  YS02001619              0.19    306.65      0  01:41       0.124     0.000
  YS02001622              0.01    314.60      0  01:31       0.001     0.000
  YS02001625              0.89   1504.79      0  01:47       2.451     0.000
  YS02001629              0.26    504.46      0  01:37       0.242     0.000
  YS02001644              0.40   2303.37      0  01:39       1.621     0.000
  YS02001649              0.01    242.60      0  01:35       0.004     0.000
  YS02001652              0.01     94.92      0  01:34       0.000     0.000
  YS02001655              0.01    417.55      0  01:34       0.001     0.000
  YS02001658              0.01    519.53      0  01:35       0.001     0.000
  YS02001661              0.01    320.06      0  01:35       0.000     0.000
  YS02001745              0.01    249.91      0  01:34       0.000     0.000
  YS02001748              0.01    564.02      0  01:35       0.001     0.000
  YS02001751              0.01    344.23      0  01:34       0.001     0.000
  YS02001754              0.01     45.86      0  01:35       0.000     0.000
  YS02001757              0.01     37.65      0  01:35       0.000     0.000
  YS02001762              0.01      2.52      0  01:35       0.000     0.000
  YS02001765              0.01     67.33      0  01:33       0.000     0.000
  YS02001767              0.01    118.94      0  01:33       0.000     0.000
  YS02001770              0.15    511.98      0  01:39       0.155     0.000
  YS02001774              0.01    185.23      0  01:33       0.000     0.000
  YS02001779              0.35    851.32      0  01:42       0.668     0.000
  YS02001882              0.01     71.41      0  01:32       0.000     0.000
  YS02001884              0.01      6.00      0  01:32       0.000     0.000
  YS02001890              0.30    751.34      0  01:38       0.374     0.000
  YS02001895              0.01     76.35      0  01:32       0.000     0.000
  YS02001898              0.01    205.02      0  01:32       0.000     0.000
  YS02001907              0.57   3027.98      0  01:39       2.943     0.000
  YS02001910              0.01     15.04      0  01:32       0.000     0.000
  YS02001915              0.09    203.64      0  01:32       0.033     0.000
  YS02001918              0.01    187.91      0  01:34       0.003     0.000
  YS02001920              0.01     43.87      0  01:34       0.000     0.000
  YS02001923              0.01    137.80      0  01:34       0.000     0.000
  YS02001926              0.01    841.39      0  01:34       0.005     0.000
  YS02001929              0.01    707.64      0  01:34       0.001     0.000
  YS02163601              0.01      2.02      0  01:34       0.000     0.000
  
  
  **********************
  Storage Volume Summary
  **********************
  
  ------------------------------------------------------------------------------------------------
                         Average    Avg   Evap  Exfil     Maximum    Max    Time of Max    Maximum
                          Volume   Pcnt   Pcnt   Pcnt      Volume   Pcnt     Occurrence    Outflow
  Storage Unit           1000 m³   Full   Loss   Loss     1000 m³   Full    days hr:min        LPS
  ------------------------------------------------------------------------------------------------
  CC-storage               2.979   46.5    0.0    0.0       5.337   83.3       0  02:22    1783.53
  JK-storage               0.158   54.4    0.0    0.0       0.213   73.0       0  01:55    2300.00
  
  
  ***********************
  Outfall Loading Summary
  ***********************
  
  -----------------------------------------------------------
                         Flow       Avg       Max       Total
                         Freq      Flow      Flow      Volume
  Outfall Node           Pcnt       LPS       LPS    10^6 ltr
  -----------------------------------------------------------
  CC-1                  26.50    683.00    683.00       4.788
  CC-2                  23.03    683.00    683.00       3.998
  JK-1                  11.28   1000.00   1000.00       2.599
  JK-2                   5.18   1000.00   1000.00       1.304
  WSC                   99.96    271.76    551.07       5.799
  -----------------------------------------------------------
  System                33.19   3637.76   3366.23      18.487
  
  
  ********************
  Link Flow Summary
  ********************
  
  -----------------------------------------------------------------------------
                                 Maximum  Time of Max   Maximum    Max/    Max/
                                  |Flow|   Occurrence   |Veloc|    Full    Full
  Link                 Type          LPS  days hr:min     m/sec    Flow   Depth
  -----------------------------------------------------------------------------
  1                    CONDUIT    551.07     0  02:05      2.82    0.19    0.30
  WS02003060WS02003069 CONDUIT    549.63     0  02:03      1.64    0.22    0.34
  WS02003066WSF200     CONDUIT    533.20     0  02:03      2.85    0.09    0.22
  WS02003067WS02003066 CONDUIT    533.15     0  02:03      1.20    0.17    0.41
  WS02003069WS02003072 CONDUIT    549.44     0  02:04      1.37    0.26    0.39
  WS02003072WS02003073 CONDUIT    549.45     0  02:04      1.43    1.19    0.37
  WS02004401WS02004402 CONDUIT    537.40     0  02:00      0.98    0.65    0.86
  WS02004402WS02004403 CONDUIT    536.59     0  02:01      0.97    0.77    0.88
  WS02004403WS02004404 CONDUIT    536.44     0  02:01      0.92    0.39    0.93
  WS02004404WS02004405 CONDUIT    536.27     0  02:01      1.08    5.25    0.96
  WS02004405WS02004406 CONDUIT    536.45     0  02:01      0.99    1.06    0.96
  WS02004406WS02004407 CONDUIT    535.86     0  02:01      1.04    0.24    0.63
  WS02004407WS02004409 CONDUIT    535.52     0  02:01      1.57    0.19    0.48
  WS02004409WS02004410 CONDUIT    534.07     0  02:02      1.05    0.69    0.67
  WS02004410WS02004411 CONDUIT    534.04     0  02:02      1.02    0.73    0.68
  WS02004411WS02004412 CONDUIT    533.46     0  02:02      0.97    0.76    0.69
  WS02004412WS02004413 CONDUIT    533.33     0  02:02      0.82    0.36    0.78
  WS02004413WS02003067 CONDUIT    533.09     0  02:03      1.11    0.23    0.59
  WS02006109WS02006110 CONDUIT    565.04     0  02:42      1.13    1.09    1.00
  WS02006110WS02006113 CONDUIT    583.15     0  02:04      1.41    0.53    0.79
  WS02006111WS02006112 CONDUIT    543.37     0  01:43      1.81    0.26    0.67
  WS02006112WS02006115 CONDUIT    562.50     0  02:43      0.89    0.33    0.87
  WS02006113WS02006111 CONDUIT    560.67     0  01:42      2.47    0.67    0.46
  WS02006115WS02006116 CONDUIT    540.27     0  01:55      1.12    0.69    0.76
  WS02006116WS02004401 CONDUIT    537.80     0  02:00      0.98    0.74    0.84
  WS02006228WS02006109 CONDUIT    563.47     0  02:42      1.12    2.46    1.00
  WS02006229WS02006228 CONDUIT    562.66     0  02:42      1.14    1.86    1.00
  WS02006230WS02006229 CONDUIT    562.83     0  02:42      1.46   12.53    1.00
  WS02006231WS02006230 CONDUIT    579.14     0  01:55      1.57    8.78    1.00
  WS02006232WS02006231 CONDUIT    573.40     0  02:15      1.50    1.20    1.00
  WS02006234WS02006232 CONDUIT    572.68     0  02:15      1.49    1.16    1.00
  WS02006235WS02006234 CONDUIT    568.20     0  02:15      1.48    5.99    1.00
  WS02006238WS02006235 CONDUIT    424.25     0  02:10      1.56    0.95    1.00
  WS02006239WS02006238 CONDUIT    424.13     0  02:30      1.10    1.36    1.00
  WS02006240WS02006239 CONDUIT    424.01     0  02:30      1.24    1.33    1.00
  WS02006242WS02006240 CONDUIT    420.78     0  02:30      1.13    1.67    1.00
  WS02006243WS02006242 CONDUIT    420.70     0  02:30      1.40    0.90    1.00
  WS02006245WS02006243 CONDUIT    420.04     0  02:30      1.45    1.24    1.00
  WS02006247WS02006245 CONDUIT    420.53     0  02:30      1.43    3.33    1.00
  WS02006248WS02006247 CONDUIT    421.16     0  01:40      1.44    0.92    1.00
  WS02006249WS02006248 CONDUIT    421.30     0  01:40      1.36    2.31    1.00
  WS02006251WS02006249 CONDUIT    459.02     0  00:00      1.99    1.32    1.00
  WS02006252WS02006251 CONDUIT    407.24     0  01:39     24.61    1.49    1.00
  WS02006256WS02006235 CONDUIT    289.20     0  01:32      4.23    3.06    1.00
  WSF200WS02003060     CONDUIT    533.52     0  02:03      2.06    0.12    0.28
  YS02001580YS02001583 CONDUIT    150.99     0  01:31      0.85    0.59    1.00
  YS02001583YS02001586 CONDUIT    188.84     0  01:31      0.85    0.29    1.00
  YS02001586YS02001590 CONDUIT    318.08     0  01:57      1.27    0.56    1.00
  YS02001590YS02001593 CONDUIT    318.14     0  02:15      1.13    2.00    1.00
  YS02001593YS02001596 CONDUIT    318.04     0  01:55      1.70    0.50    1.00
  YS02001596YS02001600 CONDUIT    318.18     0  02:03      1.24    0.62    1.00
  YS02001600YS02001601 CONDUIT    318.23     0  02:03      1.13    0.55    1.00
  YS02001601YS02001602 CONDUIT    572.42     0  01:31      2.02    2.07    1.00
  YS02001602YS02001605 CONDUIT    572.37     0  01:31      2.02   12.11    1.00
  YS02001605YS02001607 CONDUIT    572.36     0  01:31      2.02    3.14    1.00
  YS02001607YS02001610 CONDUIT    555.94     0  01:31      0.71    0.53    1.00
  YS02001610YS02001613 CONDUIT    617.69     0  01:45      0.79    0.71    1.00
  YS02001613YS02001616 CONDUIT    617.46     0  01:45      0.79    0.53    1.00
  YS02001616YS02001619 CONDUIT    617.47     0  01:45      0.79    1.07    1.00
  YS02001619YS02001622 CONDUIT   1053.96     0  01:40      1.34    1.55    1.00
  YS02001622YS02001625 CONDUIT   1053.70     0  01:47      1.34    0.56    1.00
  YS02001625YS02001629 CONDUIT    950.28     0  01:31      1.21    0.45    1.00
  YS02001629YS02163301 CONDUIT    914.91     0  01:33      1.16    1.13    1.00
  YS02001633YS02163601 CONDUIT   1429.09     0  01:33      1.82    1.50    1.00
  YS02001641YS02001644 CONDUIT   1428.97     0  01:33      1.82    4.62    1.00
  YS02001644YS02001647 CONDUIT   1911.92     0  01:33      2.44    1.12    1.00
  YS02001647YS02001649 CONDUIT   1896.62     0  01:33      2.41    1.00    1.00
  YS02001649YS02001757 CONDUIT   2158.55     0  01:33      2.75    1.31    1.00
  YS02001652YS02001649 CONDUIT   1301.35     0  01:38      1.66    0.64    1.00
  YS02001655YS02001652 CONDUIT   1301.04     0  01:38      1.66    0.63    1.00
  YS02001658YS02001655 CONDUIT   1301.04     0  01:38      2.02    0.55    1.00
  YS02001661YS02001658 CONDUIT   1301.25     0  01:38      2.39    0.51    1.00
  YS02001664YS02001661 CONDUIT   1299.92     0  01:38      2.51    0.41    1.00
  YS02001745YS02001748 CONDUIT    844.65     0  01:38      2.35    0.33    1.00
  YS02001748YS02001751 CONDUIT    845.04     0  01:38      1.85    0.43    1.00
  YS02001751YS02001754 CONDUIT    844.85     0  01:38      1.55    0.41    1.00
  YS02001754YS02001757 CONDUIT    845.54     0  01:38      1.08    0.34    1.00
  YS02001757CaochengTiaoxuchi CONDUIT   3523.34     0  01:35      4.49    1.53    1.00
  YS02001759YS02001757 CONDUIT   1561.31     0  01:35      1.99    1.11    1.00
  YS02001762YS02001759 CONDUIT    878.09     0  01:35      1.12    1.01    1.00
  YS02001765YS02001762 CONDUIT    878.31     0  01:35      1.12    0.82    1.00
  YS02001767YS02001765 CONDUIT    879.42     0  01:35      1.12    1.11    1.00
  YS02001770YS02001767 CONDUIT    878.89     0  01:35      1.12    3.48    1.00
  YS02001774YS02001770 CONDUIT    851.56     0  01:42      1.08    0.54    1.00
  YS02001779YS02001774 CONDUIT    851.54     0  01:42      1.08    0.43    1.00
  YS02001783YS02001784 CONDUIT   1176.42     0  01:36      2.34    1.62    1.00
  YS02001784YS02001785 CONDUIT   1177.34     0  01:37      2.34    2.74    1.00
  YS02001786YS02001788 CONDUIT   1179.84     0  01:37      2.50    2.27    0.89
  YS02001788YS02001790 CONDUIT   1187.96     0  01:37      2.71    0.88    0.85
  YS02001790YS02001791 CONDUIT   1301.09     0  01:39      3.45    1.42    0.71
  YS02001791YS02001793 CONDUIT   1251.87     0  01:41      6.72    0.54    0.45
  YS02001793JiankangQianchi CONDUIT   1248.36     0  02:07      2.49    0.10    0.65
  YS02001882YS02001884 CONDUIT    101.08     0  01:32      0.19    0.12    1.00
  YS02001884YS02001887 CONDUIT    137.13     0  01:32      0.17    0.18    1.00
  YS02001887YS02001890 CONDUIT   1268.63     0  01:38      1.62    2.17    1.00
  YS02001890YS02001895 CONDUIT    545.13     0  01:33      0.69    0.25    1.00
  YS02001895YS02001898 CONDUIT    544.63     0  01:33      0.69    0.95    1.00
  YS02001898YS02001901 CONDUIT    543.62     0  01:33      0.69    0.35    1.00
  YS02001901YS02001904 CONDUIT    542.59     0  01:33      0.69    0.84    1.00
  YS02001904YS02001907 CONDUIT    543.07     0  01:33      0.69    0.19    1.00
  YS02001907YS02006553 CONDUIT    791.82     0  02:07      0.88    0.93    1.00
  YS02001910YS02001907 CONDUIT   1993.02     0  01:42      2.54    1.12    1.00
  YS02001915YS02001910 CONDUIT   1993.21     0  01:41      2.54    0.99    1.00
  YS02001918YS02001915 CONDUIT    705.38     0  01:40      0.90    0.39    1.00
  YS02001920YS02001918 CONDUIT    705.81     0  01:40      0.90    0.68    1.00
  YS02001923YS02001920 CONDUIT    702.81     0  01:40      0.89    0.32    1.00
  YS02001926YS02001923 CONDUIT    854.29     0  01:33      1.30    1.22    1.00
  YS02001929YS02001926 CONDUIT    702.50     0  01:40      1.20    0.33    1.00
  YS02006553YS02006556 CONDUIT    793.26     0  02:10      1.01    0.68    1.00
  YS02006556YS02006558 CONDUIT    793.62     0  02:10      1.01    0.63    1.00
  YS02006558YS02006561 CONDUIT   1185.83     0  01:33      4.19    2.62    1.00
  YS02006561YS02001783 CONDUIT   1175.40     0  01:36      2.34    0.61    1.00
  YS02163301YS02001633 CONDUIT    915.09     0  01:33      1.17    0.86    1.00
  YS02163601YS02164001 CONDUIT   1429.21     0  01:33      1.82    1.27    1.00
  YS02164001YS02001641 CONDUIT   1429.04     0  01:33      1.82    1.95    1.00
  CC-R1                PUMP       683.00     0  00:00              1.00
  CC-R2                PUMP       683.00     0  00:00              1.00
  CC-S1                PUMP       200.00     0  00:00              1.00
  CC-S2                PUMP       200.00     0  00:00              1.00
  JK-R1                PUMP      1000.00     0  00:00              1.00
  JK-R2                PUMP      1000.00     0  00:00              1.00
  JK-S                 PUMP       300.00     0  00:00              1.00
  
  
  ***************************
  Flow Classification Summary
  ***************************
  
  -------------------------------------------------------------------------------------
                      Adjusted    ---------- Fraction of Time in Flow Class ---------- 
                       /Actual         Up    Down  Sub   Sup   Up    Down  Norm  Inlet 
  Conduit               Length    Dry  Dry   Dry   Crit  Crit  Crit  Crit  Ltd   Ctrl  
  -------------------------------------------------------------------------------------
  1                       1.00   0.00  0.00  0.00  0.00  1.00  0.00  0.00  0.43  0.00
  WS02003060WS02003069    1.00   0.00  0.00  0.00  0.99  0.01  0.00  0.00  0.68  0.00
  WS02003066WSF200        1.00   0.13  0.00  0.00  0.00  0.87  0.00  0.00  0.77  0.00
  WS02003067WS02003066    1.00   0.10  0.02  0.00  0.88  0.00  0.00  0.00  0.00  0.00
  WS02003069WS02003072    1.00   0.00  0.00  0.00  0.99  0.01  0.00  0.00  0.68  0.00
  WS02003072WS02003073    1.00   0.00  0.00  0.00  0.00  0.00  0.00  1.00  0.00  0.00
  WS02004401WS02004402    1.00   0.02  0.00  0.00  0.98  0.00  0.00  0.00  0.00  0.00
  WS02004402WS02004403    1.00   0.02  0.00  0.00  0.97  0.00  0.00  0.00  0.00  0.00
  WS02004403WS02004404    1.00   0.00  0.03  0.00  0.97  0.00  0.00  0.00  0.00  0.00
  WS02004404WS02004405    1.00   0.00  0.00  0.00  1.00  0.00  0.00  0.00  0.01  0.00
  WS02004405WS02004406    1.00   0.00  0.00  0.00  1.00  0.00  0.00  0.00  0.00  0.00
  WS02004406WS02004407    1.00   0.00  0.05  0.00  0.95  0.00  0.00  0.00  0.00  0.00
  WS02004407WS02004409    1.00   0.05  0.00  0.00  0.94  0.01  0.00  0.00  0.94  0.00
  WS02004409WS02004410    1.00   0.05  0.00  0.00  0.95  0.00  0.00  0.00  0.03  0.00
  WS02004410WS02004411    1.00   0.05  0.00  0.00  0.95  0.00  0.00  0.00  0.01  0.00
  WS02004411WS02004412    1.00   0.05  0.00  0.00  0.95  0.00  0.00  0.00  0.00  0.00
  WS02004412WS02004413    1.00   0.05  0.00  0.00  0.94  0.00  0.00  0.00  0.01  0.00
  WS02004413WS02003067    1.00   0.06  0.04  0.00  0.00  0.00  0.90  0.00  0.00  0.00
  WS02006109WS02006110    1.00   0.00  0.01  0.00  0.98  0.00  0.01  0.00  0.00  0.00
  WS02006110WS02006113    1.00   0.01  0.01  0.00  0.98  0.00  0.00  0.00  0.00  0.00
  WS02006111WS02006112    1.00   0.02  0.00  0.00  0.98  0.00  0.00  0.00  0.98  0.00
  WS02006112WS02006115    1.00   0.02  0.00  0.00  0.97  0.00  0.00  0.00  0.00  0.00
  WS02006113WS02006111    1.00   0.02  0.00  0.00  0.00  0.98  0.00  0.00  0.13  0.00
  WS02006115WS02006116    1.00   0.02  0.00  0.00  0.97  0.00  0.00  0.01  0.00  0.00
  WS02006116WS02004401    1.00   0.02  0.00  0.00  0.98  0.00  0.00  0.00  0.00  0.00
  WS02006228WS02006109    1.00   0.00  0.00  0.00  1.00  0.00  0.00  0.00  0.00  0.00
  WS02006229WS02006228    1.00   0.00  0.00  0.00  0.99  0.00  0.00  0.01  0.00  0.00
  WS02006230WS02006229    1.00   0.00  0.00  0.00  0.99  0.00  0.00  0.01  0.01  0.00
  WS02006231WS02006230    1.00   0.00  0.00  0.00  0.32  0.00  0.68  0.00  0.00  0.00
  WS02006232WS02006231    1.00   0.00  0.00  0.00  0.99  0.00  0.01  0.00  0.00  0.00
  WS02006234WS02006232    1.00   0.00  0.00  0.00  1.00  0.00  0.00  0.00  0.15  0.00
  WS02006235WS02006234    1.00   0.00  0.00  0.00  0.80  0.00  0.20  0.00  0.00  0.00
  WS02006238WS02006235    1.00   0.00  0.00  0.00  1.00  0.00  0.00  0.00  0.00  0.00
  WS02006239WS02006238    1.00   0.00  0.00  0.00  1.00  0.00  0.00  0.00  0.30  0.00
  WS02006240WS02006239    1.00   0.00  0.00  0.00  0.64  0.00  0.00  0.36  0.03  0.00
  WS02006242WS02006240    1.00   0.00  0.00  0.00  0.99  0.00  0.01  0.00  0.00  0.00
  WS02006243WS02006242    1.00   0.00  0.00  0.00  0.99  0.00  0.00  0.01  0.50  0.00
  WS02006245WS02006243    1.00   0.00  0.00  0.00  0.68  0.00  0.00  0.32  0.02  0.00
  WS02006247WS02006245    1.00   0.00  0.00  0.00  0.98  0.00  0.00  0.02  0.00  0.00
  WS02006248WS02006247    1.00   0.00  0.00  0.00  0.99  0.00  0.00  0.01  0.23  0.00
  WS02006249WS02006248    1.00   0.00  0.00  0.00  0.51  0.00  0.49  0.00  0.00  0.00
  WS02006251WS02006249    1.00   0.00  0.00  0.00  1.00  0.00  0.00  0.00  0.51  0.00
  WS02006252WS02006251    1.00   0.00  0.54  0.00  0.12  0.00  0.35  0.00  0.00  0.00
  WS02006256WS02006235    1.00   0.00  0.00  0.00  0.99  0.01  0.00  0.00  0.00  0.00
  WSF200WS02003060        1.00   0.00  0.13  0.00  0.32  0.56  0.00  0.00  0.45  0.00
  YS02001580YS02001583    1.00   0.19  0.56  0.00  0.25  0.00  0.00  0.00  0.65  0.00
  YS02001583YS02001586    1.00   0.41  0.28  0.00  0.30  0.00  0.00  0.00  0.66  0.00
  YS02001586YS02001590    1.00   0.13  0.00  0.00  0.45  0.04  0.00  0.39  0.32  0.00
  YS02001590YS02001593    1.00   0.13  0.01  0.00  0.18  0.00  0.69  0.00  0.00  0.00
  YS02001593YS02001596    1.00   0.13  0.00  0.00  0.20  0.01  0.00  0.66  0.02  0.00
  YS02001596YS02001600    1.00   0.13  0.00  0.00  0.24  0.01  0.00  0.62  0.03  0.00
  YS02001600YS02001601    1.00   0.13  0.01  0.00  0.86  0.00  0.00  0.00  0.58  0.00
  YS02001601YS02001602    1.00   0.13  0.01  0.00  0.87  0.00  0.00  0.00  0.00  0.00
  YS02001602YS02001605    1.00   0.13  0.00  0.00  0.87  0.00  0.00  0.00  0.00  0.00
  YS02001605YS02001607    1.00   0.13  0.00  0.00  0.87  0.00  0.00  0.00  0.00  0.00
  YS02001607YS02001610    1.00   0.13  0.01  0.00  0.86  0.00  0.00  0.00  0.01  0.00
  YS02001610YS02001613    1.00   0.13  0.00  0.00  0.87  0.00  0.00  0.00  0.00  0.00
  YS02001613YS02001616    1.00   0.13  0.00  0.00  0.87  0.00  0.00  0.00  0.00  0.00
  YS02001616YS02001619    1.00   0.13  0.00  0.00  0.87  0.00  0.00  0.00  0.00  0.00
  YS02001619YS02001622    1.00   0.13  0.00  0.00  0.87  0.00  0.00  0.00  0.28  0.00
  YS02001622YS02001625    1.00   0.13  0.00  0.00  0.87  0.00  0.00  0.00  0.03  0.00
  YS02001625YS02001629    1.00   0.13  0.04  0.00  0.22  0.00  0.62  0.00  0.00  0.00
  YS02001629YS02163301    1.00   0.14  0.01  0.00  0.85  0.00  0.00  0.00  0.00  0.00
  YS02001633YS02163601    1.00   0.00  0.01  0.00  0.99  0.00  0.00  0.00  0.14  0.00
  YS02001641YS02001644    1.00   0.00  0.01  0.00  0.99  0.00  0.00  0.00  0.00  0.00
  YS02001644YS02001647    1.00   0.00  0.16  0.00  0.84  0.00  0.00  0.00  0.00  0.00
  YS02001647YS02001649    1.00   0.00  0.16  0.00  0.61  0.23  0.00  0.00  0.56  0.00
  YS02001649YS02001757    1.00   0.00  0.00  0.00  0.91  0.09  0.00  0.00  0.42  0.00
  YS02001652YS02001649    1.00   0.00  0.00  0.00  0.98  0.02  0.00  0.00  0.70  0.00
  YS02001655YS02001652    1.00   0.00  0.00  0.00  0.25  0.00  0.00  0.75  0.03  0.00
  YS02001658YS02001655    1.00   0.00  0.14  0.00  0.73  0.13  0.00  0.00  0.62  0.00
  YS02001661YS02001658    1.00   0.14  0.00  0.00  0.58  0.29  0.00  0.00  0.66  0.00
  YS02001664YS02001661    1.00   0.13  0.00  0.00  0.80  0.08  0.00  0.00  0.82  0.00
  YS02001745YS02001748    1.00   0.00  0.00  0.00  0.18  0.01  0.00  0.81  0.05  0.00
  YS02001748YS02001751    1.00   0.00  0.00  0.00  0.89  0.11  0.00  0.00  0.74  0.00
  YS02001751YS02001754    1.00   0.00  0.00  0.00  0.24  0.00  0.00  0.76  0.03  0.00
  YS02001754YS02001757    1.00   0.00  0.00  0.00  1.00  0.00  0.00  0.00  0.75  0.00
  YS02001757CaochengTiaoxuchi    1.00   0.00  0.00  0.00  1.00  0.00  0.00  0.00  0.49  0.00
  YS02001759YS02001757    1.00   0.00  0.00  0.00  0.98  0.02  0.00  0.00  0.50  0.00
  YS02001762YS02001759    1.00   0.00  0.00  0.00  1.00  0.00  0.00  0.00  0.04  0.00
  YS02001765YS02001762    1.00   0.00  0.00  0.00  1.00  0.00  0.00  0.00  0.63  0.00
  YS02001767YS02001765    1.00   0.00  0.00  0.00  1.00  0.00  0.00  0.00  0.01  0.00
  YS02001770YS02001767    1.00   0.00  0.00  0.00  1.00  0.00  0.00  0.00  0.00  0.00
  YS02001774YS02001770    1.00   0.00  0.13  0.00  0.71  0.00  0.16  0.00  0.02  0.00
  YS02001779YS02001774    1.00   0.00  0.00  0.00  1.00  0.00  0.00  0.00  0.72  0.00
  YS02001783YS02001784    1.00   0.00  0.16  0.00  0.84  0.00  0.00  0.00  0.55  0.00
  YS02001784YS02001785    1.00   0.00  0.00  0.00  1.00  0.00  0.00  0.00  0.15  0.00
  YS02001786YS02001788    1.00   0.00  0.00  0.00  0.80  0.20  0.00  0.00  0.00  0.00
  YS02001788YS02001790    1.00   0.00  0.00  0.00  0.21  0.79  0.00  0.00  0.78  0.00
  YS02001790YS02001791    1.00   0.00  0.00  0.00  0.01  0.99  0.00  0.00  0.16  0.00
  YS02001791YS02001793    1.00   0.00  0.00  0.00  0.00  1.00  0.00  0.00  0.02  0.00
  YS02001793JiankangQianchi    1.00   0.00  0.00  0.00  0.98  0.02  0.00  0.00  0.93  0.00
  YS02001882YS02001884    1.00   0.14  0.00  0.00  0.85  0.00  0.00  0.00  0.00  0.00
  YS02001884YS02001887    1.00   0.06  0.05  0.00  0.89  0.00  0.00  0.00  0.00  0.00
  YS02001887YS02001890    1.00   0.00  0.00  0.00  0.97  0.00  0.03  0.00  0.00  0.00
  YS02001890YS02001895    1.00   0.00  0.15  0.00  0.85  0.00  0.00  0.00  0.00  0.00
  YS02001895YS02001898    1.00   0.15  0.00  0.00  0.84  0.00  0.01  0.00  0.00  0.00
  YS02001898YS02001901    1.00   0.15  0.00  0.00  0.85  0.00  0.00  0.00  0.00  0.00
  YS02001901YS02001904    1.00   0.15  0.00  0.00  0.85  0.00  0.00  0.00  0.00  0.00
  YS02001904YS02001907    1.00   0.00  0.15  0.00  0.85  0.00  0.00  0.00  0.00  0.00
  YS02001907YS02006553    1.00   0.00  0.02  0.00  0.98  0.00  0.00  0.00  0.00  0.00
  YS02001910YS02001907    1.00   0.00  0.00  0.00  0.97  0.00  0.00  0.03  0.12  0.00
  YS02001915YS02001910    1.00   0.00  0.00  0.00  0.97  0.03  0.00  0.00  0.13  0.00
  YS02001918YS02001915    1.00   0.00  0.01  0.00  0.98  0.02  0.00  0.00  0.71  0.00
  YS02001920YS02001918    1.00   0.00  0.01  0.00  0.99  0.00  0.00  0.00  0.00  0.00
  YS02001923YS02001920    1.00   0.00  0.00  0.00  1.00  0.00  0.00  0.00  0.89  0.00
  YS02001926YS02001923    1.00   0.00  0.07  0.00  0.09  0.00  0.83  0.00  0.00  0.00
  YS02001929YS02001926    1.00   0.00  0.13  0.00  0.87  0.00  0.00  0.00  0.79  0.00
  YS02006553YS02006556    1.00   0.01  0.00  0.00  0.99  0.00  0.00  0.00  0.03  0.00
  YS02006556YS02006558    1.00   0.00  0.00  0.00  1.00  0.00  0.00  0.00  0.00  0.00
  YS02006558YS02006561    1.00   0.16  0.00  0.00  0.09  0.75  0.00  0.00  0.17  0.00
  YS02006561YS02001783    1.00   0.16  0.00  0.00  0.12  0.71  0.00  0.00  0.65  0.00
  YS02163301YS02001633    1.00   0.00  0.14  0.00  0.86  0.00  0.00  0.00  0.00  0.00
  YS02163601YS02164001    1.00   0.00  0.08  0.00  0.92  0.00  0.00  0.00  0.00  0.00
  YS02164001YS02001641    1.00   0.01  0.07  0.00  0.92  0.00  0.00  0.00  0.05  0.00
  
  
  *************************
  Conduit Surcharge Summary
  *************************
  
  ----------------------------------------------------------------------------
                                                           Hours        Hours 
                         --------- Hours Full --------   Above Full   Capacity
  Conduit                Both Ends  Upstream  Dnstream   Normal Flow   Limited
  ----------------------------------------------------------------------------
  WS02003072WS02003073        0.01      0.01      0.01      1.31         0.01
  WS02004404WS02004405        0.01      0.01      0.01      3.60         0.01
  WS02004405WS02004406        0.01      0.01      0.01      0.62         0.01
  WS02006109WS02006110        0.67      0.67      2.45      0.83         0.01
  WS02006110WS02006113        0.01      0.01      2.45      0.01         0.01
  WS02006111WS02006112        0.01      0.01      2.57      0.01         0.01
  WS02006112WS02006115        0.01      0.01      0.73      0.01         0.01
  WS02006228WS02006109        2.44      2.45      2.44      2.67         2.44
  WS02006229WS02006228        2.44      2.44      2.44      2.53         2.42
  WS02006230WS02006229        2.50      2.53      2.50      4.32         2.50
  WS02006231WS02006230        0.70      0.70      0.92      3.90         0.01
  WS02006232WS02006231        0.86      0.86      2.46      0.95         0.01
  WS02006234WS02006232        2.39      2.40      2.46      0.93         0.92
  WS02006235WS02006234        1.26      1.27      2.39      3.78         0.02
  WS02006238WS02006235        2.41      2.41      2.46      0.01         0.01
  WS02006239WS02006238        2.44      2.46      2.44      2.39         2.17
  WS02006240WS02006239        2.42      2.45      2.43      2.38         2.08
  WS02006242WS02006240        2.45      2.45      2.46      2.51         0.01
  WS02006243WS02006242        2.38      2.38      2.45      0.01         0.06
  WS02006245WS02006243        2.36      2.36      2.37      1.67         1.68
  WS02006247WS02006245        2.36      2.37      2.36      3.63         2.34
  WS02006248WS02006247        2.36      2.36      2.36      0.01         0.06
  WS02006249WS02006248        2.35      2.35      2.35      3.59         0.01
  WS02006251WS02006249        2.35      2.35      2.35      2.46         2.27
  WS02006252WS02006251        2.50      2.50      2.50      2.50         0.01
  WS02006256WS02006235        3.79      3.83      5.55      1.21         0.01
  YS02001580YS02001583        0.97      0.97      1.04      0.01         0.01
  YS02001583YS02001586        0.98      0.98      1.18      0.01         0.01
  YS02001586YS02001590        1.19      1.19      1.27      0.01         0.01
  YS02001590YS02001593        1.28      1.28      1.30      1.34         0.01
  YS02001593YS02001596        1.29      1.29      1.41      0.01         0.01
  YS02001596YS02001600        1.46      1.46      1.58      0.01         0.01
  YS02001600YS02001601        1.62      1.62      1.79      0.01         0.01
  YS02001601YS02001602        1.73      1.73      1.82      1.55         0.01
  YS02001602YS02001605        1.70      1.70      1.73      2.44         0.01
  YS02001605YS02001607        1.67      1.70      1.67      1.75         1.67
  YS02001607YS02001610        1.30      1.30      1.34      0.01         0.01
  YS02001610YS02001613        1.30      1.30      1.34      0.01         0.01
  YS02001613YS02001616        1.25      1.25      1.30      0.01         0.01
  YS02001616YS02001619        1.23      1.23      1.25      0.17         0.15
  YS02001619YS02001622        1.23      1.23      1.24      1.19         1.06
  YS02001622YS02001625        1.24      1.24      1.45      0.01         0.01
  YS02001625YS02001629        1.17      1.17      1.45      0.01         0.01
  YS02001629YS02163301        1.46      1.46      1.48      0.02         0.09
  YS02001633YS02163601        1.50      1.50      1.54      0.08         0.16
  YS02001641YS02001644        1.44      1.47      1.44      1.83         1.42
  YS02001644YS02001647        1.22      1.22      1.44      0.04         0.01
  YS02001647YS02001649        1.22      1.22      1.40      0.01         0.01
  YS02001649YS02001757        1.39      1.40      1.48      0.04         0.02
  YS02001652YS02001649        1.18      1.18      1.40      0.01         0.01
  YS02001655YS02001652        0.91      0.91      1.15      0.01         0.01
  YS02001658YS02001655        0.49      0.49      0.91      0.01         0.01
  YS02001661YS02001658        0.19      0.19      0.49      0.01         0.01
  YS02001664YS02001661        0.01      0.01      0.24      0.01         0.01
  YS02001745YS02001748        0.01      0.01      0.39      0.01         0.01
  YS02001748YS02001751        0.46      0.46      0.75      0.01         0.01
  YS02001751YS02001754        0.75      0.75      1.07      0.01         0.01
  YS02001754YS02001757        1.12      1.12      1.48      0.01         0.01
  YS02001757CaochengTiaoxuchi        1.45      1.48      2.39      0.50         0.45
  YS02001759YS02001757        1.38      1.38      1.48      0.11         0.10
  YS02001762YS02001759        1.35      1.35      1.38      0.01         0.02
  YS02001765YS02001762        1.29      1.29      1.35      0.01         0.01
  YS02001767YS02001765        1.26      1.26      1.29      0.01         0.02
  YS02001770YS02001767        1.25      1.26      1.26      0.81         0.77
  YS02001774YS02001770        1.22      1.22      1.32      0.01         0.01
  YS02001779YS02001774        1.04      1.04      1.32      0.01         0.01
  YS02001783YS02001784        0.78      0.81      0.78      0.98         0.78
  YS02001784YS02001785        0.66      0.78      0.66      1.30         0.66
  YS02001786YS02001788        0.01      0.66      0.01      1.12         0.01
  YS02001790YS02001791        0.01      0.01      0.01      0.76         0.01
  YS02001793JiankangQianchi        0.01      0.01      7.70      0.01         0.01
  YS02001882YS02001884        0.74      0.74      0.75      0.01         0.01
  YS02001884YS02001887        0.78      0.78      0.80      0.01         0.01
  YS02001887YS02001890        0.81      0.81      0.83      0.25         0.01
  YS02001890YS02001895        0.73      0.73      0.84      0.01         0.01
  YS02001895YS02001898        0.72      0.72      0.73      0.01         0.01
  YS02001898YS02001901        0.73      0.73      0.78      0.01         0.01
  YS02001901YS02001904        0.77      0.77      0.78      0.01         0.01
  YS02001904YS02001907        0.77      0.77      1.08      0.01         0.01
  YS02001907YS02006553        1.32      1.32      1.41      0.01         0.01
  YS02001910YS02001907        0.85      0.85      1.04      0.14         0.15
  YS02001915YS02001910        0.74      0.74      0.85      0.01         0.02
  YS02001918YS02001915        0.64      0.64      0.74      0.01         0.01
  YS02001920YS02001918        0.64      0.64      0.66      0.01         0.01
  YS02001923YS02001920        0.59      0.59      0.66      0.01         0.01
  YS02001926YS02001923        0.27      0.27      0.30      0.02         0.01
  YS02001929YS02001926        0.16      0.16      0.30      0.01         0.01
  YS02006553YS02006556        0.94      0.94      1.08      0.01         0.01
  YS02006556YS02006558        1.00      1.00      1.11      0.01         0.01
  YS02006558YS02006561        0.68      0.93      0.68      1.24         0.68
  YS02006561YS02001783        0.61      0.61      0.81      0.01         0.01
  YS02163301YS02001633        1.48      1.48      1.52      0.01         0.01
  YS02163601YS02164001        1.46      1.46      1.54      0.04         0.01
  YS02164001YS02001641        1.46      1.46      1.47      0.82         0.81
  
  
  ***************
  Pumping Summary
  ***************
  
  ---------------------------------------------------------------------------------------------------------
                                                  Min       Avg       Max     Total     Power    % Time Off
                        Percent   Number of      Flow      Flow      Flow    Volume     Usage    Pump Curve
  Pump                 Utilized   Start-Ups       LPS       LPS       LPS  10^6 ltr     Kw-hr    Low   High
  ---------------------------------------------------------------------------------------------------------
  CC-R1                   24.34           2      0.00    683.00    683.00     4.787     92.82    0.0    4.3
  CC-R2                   20.32           2      0.00    683.00    683.00     3.997     78.25    0.0    5.1
  CC-S1                   46.32           5      0.00    200.00    200.00     2.668     14.31    0.0    0.0
  CC-S2                   31.22           2      0.00    200.00    200.00     1.799      9.09    0.0    0.0
  JK-R1                    9.02          14      0.00   1000.00   1000.00     2.598     30.60    0.0    0.0
  JK-R2                    4.52           4      0.00   1000.00   1000.00     1.302     12.86    0.0    0.0
  JK-S                    15.09          19      0.00    300.00    300.00     1.304     18.03    0.0    0.0
  

  Analysis begun on:  Mon Feb 24 09:54:46 2025
  Analysis ended on:  Mon Feb 24 09:54:47 2025
  Total elapsed time: 00:00:01