
  EPA STORM WATER MANAGEMENT MODEL - VERSION 5.2 (Build 5.2.4)
  PYSWMM TOOLKIT API - VERSION v1.0 (2023-11-27)
  ------------------------------------------------------------

  WARNING 04: minimum elevation drop used for Conduit WS02004404WS02004405
  WARNING 03: negative offset ignored for Link YS02001904YS02001907
  
  ****************
  Analysis Options
  ****************
  Flow Units ............... LPS
  Process Models:
    Rainfall/Runoff ........ YES
    RDII ................... NO
    Snowmelt ............... NO
    Groundwater ............ NO
    Flow Routing ........... YES
    Ponding Allowed ........ NO
    Water Quality .......... NO
  Infiltration Method ...... HORTON
  Flow Routing Method ...... DYNWAVE
  Surcharge Method ......... EXTRAN
  Starting Date ............ 08/28/2015 08:00:00
  Ending Date .............. 08/28/2015 16:00:00
  Antecedent Dry Days ...... 8.0
  Report Time Step ......... 00:01:00
  Wet Time Step ............ 00:01:00
  Dry Time Step ............ 00:01:00
  Routing Time Step ........ 30.00 sec
  Variable Time Step ....... YES
  Maximum Trials ........... 8
  Number of Threads ........ 4
  Head Tolerance ........... 0.001500 m
  
  
  **************************        Volume         Depth
  Runoff Quantity Continuity     hectare-m            mm
  **************************     ---------       -------
  Total Precipitation ......         1.492        44.966
  Evaporation Loss .........         0.000         0.000
  Infiltration Loss ........         0.095         2.867
  Surface Runoff ...........         1.364        41.114
  Final Storage ............         0.033         0.994
  Continuity Error (%) .....        -0.019
  
  
  **************************        Volume        Volume
  Flow Routing Continuity        hectare-m      10^6 ltr
  **************************     ---------     ---------
  Dry Weather Inflow .......         0.025         0.251
  Wet Weather Inflow .......         1.364        13.637
  Groundwater Inflow .......         0.000         0.000
  RDII Inflow ..............         0.000         0.000
  External Inflow ..........         0.083         0.834
  External Outflow .........         1.172        11.721
  Flooding Loss ............         0.264         2.639
  Evaporation Loss .........         0.000         0.000
  Exfiltration Loss ........         0.000         0.000
  Initial Stored Volume ....         0.243         2.431
  Final Stored Volume ......         0.281         2.809
  Continuity Error (%) .....        -0.098
  
  
  *************************
  Highest Continuity Errors
  *************************
  Node YS02001884 (5.42%)
  Node YS02001583 (-5.31%)
  Node YS02001774 (1.48%)
  
  
  ***************************
  Time-Step Critical Elements
  ***************************
  Link WS02006252WS02006251 (52.35%)
  Link WS02004404WS02004405 (12.65%)
  Link WS02006238WS02006235 (10.84%)
  Link WS02006235WS02006234 (6.36%)
  Link YS02001791YS02001793 (5.86%)
  
  
  ********************************
  Highest Flow Instability Indexes
  ********************************
  Link WS02006113WS02006111 (42)
  Link WS02006111WS02006112 (20)
  Link WS02006252WS02006251 (11)
  Link WS02006256WS02006235 (10)
  Link WS02006238WS02006235 (9)
  
  
  *********************************
  Most Frequent Nonconverging Nodes
  *********************************
  Node CC-1 (8.64%)
  Node CC-2 (8.64%)
  Node JK-1 (8.64%)
  Node JK-2 (8.64%)
  Node WSC (8.64%)
  
  
  *************************
  Routing Time Step Summary
  *************************
  Minimum Time Step           :     0.01 sec
  Average Time Step           :     2.02 sec
  Maximum Time Step           :     7.04 sec
  % of Time in Steady State   :     0.00
  Average Iterations per Step :     2.74
  % of Steps Not Converging   :     8.64
  Time Step Frequencies       :
     30.000 - 13.228 sec      :     0.00 %
     13.228 -  5.833 sec      :    10.18 %
      5.833 -  2.572 sec      :    20.77 %
      2.572 -  1.134 sec      :    12.53 %
      1.134 -  0.500 sec      :    56.52 %
  
  
  ***************************
  Subcatchment Runoff Summary
  ***************************
  
  ------------------------------------------------------------------------------------------------------------------------------
                            Total      Total      Total      Total     Imperv       Perv      Total       Total     Peak  Runoff
                           Precip      Runon       Evap      Infil     Runoff     Runoff     Runoff      Runoff   Runoff   Coeff
  Subcatchment                 mm         mm         mm         mm         mm         mm         mm    10^6 ltr      LPS
  ------------------------------------------------------------------------------------------------------------------------------
  sub60                     44.97       0.00       0.00       1.73      38.36       3.67      42.04        0.55   369.69   0.935
  sub61                     44.97       0.00       0.00       2.50      36.19       5.14      41.33        0.76   511.96   0.919
  sub62                     44.97       0.00       0.00       1.15      40.08       2.45      42.53        1.17   724.06   0.946
  sub63                     44.97       0.00       0.00       4.64      30.95       8.40      39.36        0.89   570.23   0.875
  sub64                     44.97       0.00       0.00       2.34      37.01       4.40      41.42        0.99   585.22   0.921
  sub65                     44.97       0.00       0.00       2.03      37.86       3.82      41.68        1.15   652.47   0.927
  sub66                     44.97       0.00       0.00       5.72      30.85       7.32      38.17        1.78   838.91   0.849
  sub67                     44.97       0.00       0.00       1.11      40.12       2.49      42.61        0.79   562.07   0.948
  sub68                     44.97       0.00       0.00       2.07      37.48       4.22      41.70        1.15   740.42   0.927
  sub69                     44.97       0.00       0.00       1.83      38.11       4.91      43.02        1.59   870.14   0.957
  sub70                     44.97       0.00       0.00       6.09      29.51       9.20      38.71        1.12   472.17   0.861
  sub71                     44.97       0.00       0.00       1.18      40.04       2.42      42.46        1.11   634.90   0.944
  sub72                     44.97       0.00       0.00       1.05      40.41       2.10      42.51        0.58   305.93   0.945
  
  
  ******************
  Node Depth Summary
  ******************
  
  ---------------------------------------------------------------------------------
                                 Average  Maximum  Maximum  Time of Max    Reported
                                   Depth    Depth      HGL   Occurrence   Max Depth
  Node                 Type       Meters   Meters   Meters  days hr:min      Meters
  ---------------------------------------------------------------------------------
  WS02003060           JUNCTION     0.22     0.38     5.31     0  02:31        0.38
  WS02003066           JUNCTION     0.18     0.30     5.85     0  02:33        0.30
  WS02003067           JUNCTION     0.48     0.70     6.02     0  02:32        0.70
  WS02003069           JUNCTION     0.24     0.43     5.01     0  02:34        0.43
  WS02003072           JUNCTION     0.31     0.50     4.87     0  02:33        0.50
  WS02003073           JUNCTION     0.17     0.30     4.36     0  02:35        0.30
  WS02004401           JUNCTION     0.56     0.85     6.85     0  02:25        0.85
  WS02004402           JUNCTION     0.59     0.87     6.83     0  02:26        0.87
  WS02004403           JUNCTION     0.62     0.89     6.82     0  02:28        0.89
  WS02004404           JUNCTION     0.69     0.96     6.81     0  02:26        0.96
  WS02004405           JUNCTION     0.69     0.95     6.80     0  02:26        0.95
  WS02004406           JUNCTION     0.70     0.95     6.78     0  02:26        0.95
  WS02004407           JUNCTION     0.16     0.29     6.61     0  02:26        0.29
  WS02004409           JUNCTION     0.36     0.66     6.43     0  02:32        0.66
  WS02004410           JUNCTION     0.39     0.68     6.40     0  02:32        0.68
  WS02004411           JUNCTION     0.41     0.69     6.37     0  02:32        0.69
  WS02004412           JUNCTION     0.43     0.69     6.33     0  02:32        0.69
  WS02004413           JUNCTION     0.59     0.85     6.32     0  02:32        0.85
  WS02006109           JUNCTION     0.61     1.41     8.03     0  02:37        1.10
  WS02006110           JUNCTION     0.62     1.35     7.93     0  02:37        1.04
  WS02006111           JUNCTION     0.16     0.29     6.99     0  02:33        0.29
  WS02006112           JUNCTION     0.71     1.09     6.97     0  02:32        1.05
  WS02006113           JUNCTION     0.25     0.46     7.35     0  02:27        0.46
  WS02006115           JUNCTION     0.44     0.75     6.89     0  02:30        0.75
  WS02006116           JUNCTION     0.53     0.83     6.87     0  02:25        0.83
  WS02006228           JUNCTION     0.60     1.65     8.31     0  02:37        1.11
  WS02006229           JUNCTION     0.57     1.72     8.42     0  02:37        1.08
  WS02006230           JUNCTION     0.56     2.15     8.89     0  02:37        1.20
  WS02006231           JUNCTION     0.38     1.70     8.82     0  02:37        0.96
  WS02006232           JUNCTION     0.51     2.04     9.08     0  02:09        1.31
  WS02006234           JUNCTION     0.42     1.70     8.86     0  02:46        1.70
  WS02006235           JUNCTION     0.46     2.00     9.16     0  02:46        2.00
  WS02006238           JUNCTION     0.49     2.11     9.25     0  02:46        2.11
  WS02006239           JUNCTION     0.45     2.03     9.24     0  02:46        2.03
  WS02006240           JUNCTION     0.42     1.85     9.14     0  02:46        1.85
  WS02006242           JUNCTION     0.48     1.55     8.82     0  02:46        1.55
  WS02006243           JUNCTION     0.39     1.44     8.86     0  02:46        1.44
  WS02006245           JUNCTION     0.40     1.36     8.85     0  02:46        1.36
  WS02006247           JUNCTION     0.42     1.30     8.80     0  02:46        1.30
  WS02006248           JUNCTION     0.39     1.10     8.69     0  02:15        1.10
  WS02006249           JUNCTION     0.42     1.09     8.69     0  02:10        1.09
  WS02006251           JUNCTION     0.42     1.49     9.16     0  02:37        1.13
  WS02006252           JUNCTION     0.32     1.50     9.74     0  00:00        0.69
  WS02006256           JUNCTION     0.92     2.35     9.28     0  00:00        2.35
  WSF200               JUNCTION     0.15     0.29     5.52     0  02:30        0.29
  YS02001580           JUNCTION     0.06     1.05     9.59     0  02:08        0.77
  YS02001583           JUNCTION     0.09     1.05     9.55     0  02:08        0.82
  YS02001586           JUNCTION     0.15     1.13     9.30     0  02:08        1.13
  YS02001590           JUNCTION     0.24     1.40     9.26     0  02:06        1.37
  YS02001593           JUNCTION     0.17     1.32     9.18     0  02:08        1.28
  YS02001596           JUNCTION     0.24     1.67     9.08     0  02:08        1.65
  YS02001600           JUNCTION     0.29     1.87     9.00     0  02:08        1.86
  YS02001601           JUNCTION     0.48     2.06     8.90     0  02:07        2.06
  YS02001602           JUNCTION     0.40     1.87     8.77     0  02:07        1.87
  YS02001605           JUNCTION     0.37     1.78     8.68     0  02:10        1.78
  YS02001607           JUNCTION     0.37     1.65     8.50     0  02:10        1.65
  YS02001610           JUNCTION     0.42     1.68     8.48     0  02:08        1.68
  YS02001613           JUNCTION     0.38     1.69     8.53     0  02:10        1.69
  YS02001616           JUNCTION     0.31     1.61     8.52     0  02:10        1.61
  YS02001619           JUNCTION     0.28     1.61     8.54     0  02:10        1.61
  YS02001622           JUNCTION     0.27     1.60     8.50     0  02:10        1.60
  YS02001625           JUNCTION     0.54     1.78     8.38     0  02:08        1.78
  YS02001629           JUNCTION     0.39     1.85     8.40     0  02:08        1.85
  YS02001633           JUNCTION     0.47     2.08     8.53     0  02:08        2.08
  YS02001641           JUNCTION     0.46     1.96     8.39     0  02:11        1.94
  YS02001644           JUNCTION     0.45     1.92     8.35     0  02:11        1.92
  YS02001647           JUNCTION     0.24     1.79     8.40     0  02:12        1.70
  YS02001649           JUNCTION     0.27     1.98     8.37     0  02:13        1.89
  YS02001652           JUNCTION     0.17     1.89     8.49     0  02:12        1.71
  YS02001655           JUNCTION     0.12     2.13     8.98     0  02:12        1.48
  YS02001658           JUNCTION     0.09     2.20     9.34     0  02:12        1.22
  YS02001661           JUNCTION     0.13     1.41     8.82     0  02:13        0.97
  YS02001664           JUNCTION     0.04     0.59     8.52     0  02:12        0.59
  YS02001745           JUNCTION     0.05     0.78     8.30     0  02:12        0.75
  YS02001748           JUNCTION     0.08     1.76     8.84     0  02:12        1.17
  YS02001751           JUNCTION     0.10     1.73     8.61     0  02:12        1.35
  YS02001754           JUNCTION     0.14     1.78     8.39     0  02:12        1.60
  YS02001757           JUNCTION     0.29     2.03     8.29     0  02:12        1.92
  YS02001759           JUNCTION     0.23     1.99     8.35     0  02:12        1.89
  YS02001762           JUNCTION     0.22     2.02     8.42     0  02:12        1.88
  YS02001765           JUNCTION     0.20     1.99     8.44     0  02:12        1.88
  YS02001767           JUNCTION     0.20     1.95     8.44     0  02:12        1.91
  YS02001770           JUNCTION     0.21     1.95     8.44     0  02:11        1.95
  YS02001774           JUNCTION     0.28     2.05     8.47     0  02:11        2.05
  YS02001779           JUNCTION     0.13     1.68     8.37     0  02:10        1.68
  YS02001783           JUNCTION     0.20     1.36     7.50     0  02:11        1.22
  YS02001784           JUNCTION     0.22     1.22     7.29     0  02:11        1.10
  YS02001786           JUNCTION     0.19     0.94     6.97     0  02:11        0.86
  YS02001788           JUNCTION     0.13     0.62     6.60     0  02:11        0.62
  YS02001790           JUNCTION     0.16     0.72     6.37     0  02:13        0.71
  YS02001791           JUNCTION     0.10     0.44     5.91     0  02:13        0.42
  YS02001793           JUNCTION     0.05     0.29     5.12     0  02:20        0.28
  YS02001882           JUNCTION     0.26     1.64     8.35     0  02:11        1.62
  YS02001884           JUNCTION     0.35     1.73     8.35     0  02:11        1.72
  YS02001887           JUNCTION     0.43     1.81     8.35     0  02:13        1.81
  YS02001890           JUNCTION     0.46     1.81     8.32     0  02:11        1.81
  YS02001895           JUNCTION     0.23     1.57     8.31     0  02:11        1.56
  YS02001898           JUNCTION     0.24     1.57     8.30     0  02:11        1.56
  YS02001901           JUNCTION     0.35     1.68     8.29     0  02:11        1.68
  YS02001904           JUNCTION     0.33     1.66     8.29     0  02:11        1.66
  YS02001907           JUNCTION     0.66     1.96     8.25     0  02:11        1.96
  YS02001910           JUNCTION     0.45     1.96     8.47     0  02:11        1.96
  YS02001915           JUNCTION     0.26     1.91     8.62     0  02:11        1.89
  YS02001918           JUNCTION     0.12     1.81     8.88     0  02:11        1.81
  YS02001920           JUNCTION     0.20     2.14     9.15     0  02:11        1.86
  YS02001923           JUNCTION     0.09     2.03     9.29     0  02:11        1.61
  YS02001926           JUNCTION     0.13     1.90     9.35     0  02:11        1.43
  YS02001929           JUNCTION     0.07     1.78     9.47     0  02:11        1.19
  YS02006553           JUNCTION     0.66     1.99     8.27     0  02:11        1.99
  YS02006556           JUNCTION     0.63     1.97     8.28     0  02:11        1.97
  YS02006558           JUNCTION     0.67     2.04     8.30     0  02:11        1.98
  YS02006561           JUNCTION     0.12     1.03     7.69     0  02:11        0.88
  YS02163301           JUNCTION     0.41     2.03     8.55     0  02:08        2.03
  YS02163601           JUNCTION     0.51     2.05     8.45     0  02:11        2.00
  YS02164001           JUNCTION     0.44     1.96     8.42     0  02:11        1.93
  CC-1                 OUTFALL      0.00     0.00     0.00     0  00:00        0.00
  CC-2                 OUTFALL      0.00     0.00     0.00     0  00:00        0.00
  JK-1                 OUTFALL      0.00     0.00     0.00     0  00:00        0.00
  JK-2                 OUTFALL      0.00     0.00     0.00     0  00:00        0.00
  WSC                  OUTFALL      0.17     0.30     0.97     0  02:35        0.30
  CC-storage           STORAGE      0.93     1.59     7.09     0  02:33        1.59
  JK-storage           STORAGE      3.15     4.22     5.02     0  02:15        4.19
  
  
  *******************
  Node Inflow Summary
  *******************
  
  -------------------------------------------------------------------------------------------------
                                  Maximum  Maximum                  Lateral       Total        Flow
                                  Lateral    Total  Time of Max      Inflow      Inflow     Balance
                                   Inflow   Inflow   Occurrence      Volume      Volume       Error
  Node                 Type           LPS      LPS  days hr:min    10^6 ltr    10^6 ltr     Percent
  -------------------------------------------------------------------------------------------------
  WS02003060           JUNCTION     16.53   548.82     0  02:31       0.476        4.54       0.058
  WS02003066           JUNCTION      0.00   531.80     0  02:33           0        4.07       0.040
  WS02003067           JUNCTION      0.00   531.70     0  02:32           0        4.07       0.113
  WS02003069           JUNCTION      0.32   548.62     0  02:33     0.00922        4.55       0.090
  WS02003072           JUNCTION      0.00   548.09     0  02:34           0        4.54       0.148
  WS02003073           JUNCTION      1.82   550.03     0  02:34      0.0524        4.59       0.112
  WS02004401           JUNCTION      0.00   539.01     0  02:39           0        4.19       0.291
  WS02004402           JUNCTION      0.00   537.33     0  02:28           0        4.18       0.291
  WS02004403           JUNCTION      0.00   537.22     0  02:27           0        4.17       0.279
  WS02004404           JUNCTION      0.16   535.16     0  02:26     0.00467        4.16       0.229
  WS02004405           JUNCTION      0.04   535.23     0  02:28      0.0011        4.15       0.339
  WS02004406           JUNCTION      0.00   536.22     0  02:28           0        4.14       0.561
  WS02004407           JUNCTION      0.00   534.60     0  02:26           0        4.12       0.057
  WS02004409           JUNCTION      0.00   534.32     0  02:26           0        4.11       0.106
  WS02004410           JUNCTION      0.00   533.58     0  02:31           0        4.11       0.142
  WS02004411           JUNCTION      0.00   532.46     0  02:32           0         4.1       0.168
  WS02004412           JUNCTION      0.00   532.09     0  02:31           0         4.1       0.212
  WS02004413           JUNCTION      0.00   532.12     0  02:32           0        4.09       0.365
  WS02006109           JUNCTION      1.23   563.49     0  02:37      0.0354        4.25       0.279
  WS02006110           JUNCTION      0.00   563.59     0  02:37           0        4.24       0.216
  WS02006111           JUNCTION      0.00   560.36     0  02:33           0        4.23       0.041
  WS02006112           JUNCTION      0.00   542.13     0  02:33           0        4.23       0.467
  WS02006113           JUNCTION      0.00   570.63     0  02:37           0        4.23       0.076
  WS02006115           JUNCTION      0.00   556.41     0  02:38           0        4.21       0.210
  WS02006116           JUNCTION      0.00   540.59     0  02:38           0         4.2       0.185
  WS02006228           JUNCTION      0.00   561.81     0  02:37           0        4.22       0.120
  WS02006229           JUNCTION      0.00   561.98     0  02:37           0        4.23       0.155
  WS02006230           JUNCTION     10.28   590.68     0  02:15       0.296        4.24       0.133
  WS02006231           JUNCTION      0.00   573.18     0  02:37           0        3.94       0.015
  WS02006232           JUNCTION      0.00   572.49     0  02:37           0        3.95       0.304
  WS02006234           JUNCTION      0.00   568.15     0  02:37           0        3.94      -0.197
  WS02006235           JUNCTION      0.00   561.16     0  02:31           0           4       0.274
  WS02006238           JUNCTION      0.00   424.86     0  02:45           0        3.29      -0.179
  WS02006239           JUNCTION      0.00   423.54     0  02:45           0        3.26      -0.113
  WS02006240           JUNCTION      0.00   423.09     0  02:45           0        3.23      -0.038
  WS02006242           JUNCTION      0.00   422.87     0  02:45           0        3.22      -0.029
  WS02006243           JUNCTION      0.00   422.66     0  02:45           0        3.21       0.084
  WS02006245           JUNCTION      0.00   423.22     0  02:45           0        3.22       0.396
  WS02006247           JUNCTION      0.00   423.35     0  02:45           0        3.22       0.034
  WS02006248           JUNCTION      0.00   422.94     0  02:45           0        3.23       0.090
  WS02006249           JUNCTION      0.00   459.02     0  00:00           0        3.39       0.392
  WS02006251           JUNCTION      0.08   410.09     0  02:11     0.00222        3.39      -0.051
  WS02006252           JUNCTION      0.00   400.00     0  00:00           0        3.39      -0.050
  WS02006256           JUNCTION      0.00   300.00     0  00:00           0        1.05      -0.949
  WSF200               JUNCTION      0.00   531.86     0  02:33           0        4.07       0.017
  YS02001580           JUNCTION      0.00   127.70     0  02:08           0     0.00428      -0.822
  YS02001583           JUNCTION      0.00   166.96     0  02:08           0      0.0151      -5.047
  YS02001586           JUNCTION    472.17   472.20     0  02:16        1.12        1.13       0.113
  YS02001590           JUNCTION      0.00   317.97     0  02:15           0        1.03      -0.025
  YS02001593           JUNCTION      0.00   317.99     0  02:17           0        1.03       0.009
  YS02001596           JUNCTION      0.00   317.95     0  02:18           0        1.03      -0.003
  YS02001600           JUNCTION      0.00   318.09     0  02:17           0        1.03       0.012
  YS02001601           JUNCTION    870.14  1187.69     0  02:14        1.59        2.62       0.035
  YS02001602           JUNCTION      0.00   519.47     0  02:07           0        1.89       0.023
  YS02001605           JUNCTION      0.00   519.47     0  02:07           0        1.82       0.038
  YS02001607           JUNCTION      0.00   519.14     0  02:07           0        1.82       0.113
  YS02001610           JUNCTION      0.00   520.84     0  02:07           0        1.81       0.129
  YS02001613           JUNCTION      0.00   521.93     0  02:07           0        1.58       0.117
  YS02001616           JUNCTION      0.00   520.72     0  02:07           0        1.58       0.032
  YS02001619           JUNCTION    838.91   922.14     0  02:10        1.78        3.36       0.004
  YS02001622           JUNCTION      0.00   924.58     0  02:07           0        3.36       0.004
  YS02001625           JUNCTION      0.00   979.14     0  02:16           0        3.38       0.276
  YS02001629           JUNCTION      0.00   930.50     0  02:07           0        2.88       0.018
  YS02001633           JUNCTION    652.67  1354.47     0  02:10        1.15           4       0.091
  YS02001641           JUNCTION      0.00  1356.14     0  02:10           0        3.97       0.072
  YS02001644           JUNCTION    585.26  1754.48     0  02:10       0.996        4.96       0.066
  YS02001647           JUNCTION      0.00  1753.69     0  02:10           0         4.9       0.007
  YS02001649           JUNCTION      0.00  1967.86     0  02:09           0         5.8       0.007
  YS02001652           JUNCTION      0.00   715.93     0  02:13           0         0.9      -0.106
  YS02001655           JUNCTION      0.15   715.75     0  02:13     0.00443       0.899       0.018
  YS02001658           JUNCTION      0.00   714.37     0  02:13           0       0.894      -0.032
  YS02001661           JUNCTION      0.00   750.57     0  02:13           0       0.894      -0.022
  YS02001664           JUNCTION    570.23   570.23     0  02:14       0.893       0.893      -0.012
  YS02001745           JUNCTION    369.69   448.17     0  02:12       0.552       0.553       0.251
  YS02001748           JUNCTION      0.04   583.31     0  02:12      0.0013       0.555      -0.410
  YS02001751           JUNCTION      0.01   441.38     0  02:13    0.000317       0.564       0.151
  YS02001754           JUNCTION      0.26   441.17     0  02:13     0.00749       0.579      -0.237
  YS02001757           JUNCTION      0.00  3153.38     0  02:13           0        8.31       0.016
  YS02001759           JUNCTION    512.00  1221.33     0  02:14        0.76        1.94      -0.011
  YS02001762           JUNCTION      0.00   722.04     0  02:14           0        1.18       0.001
  YS02001765           JUNCTION      0.00   720.77     0  02:14           0        1.18       0.025
  YS02001767           JUNCTION      0.54   719.82     0  02:14      0.0154        1.18       0.003
  YS02001770           JUNCTION    724.22   724.22     0  02:14        1.17        1.21       0.007
  YS02001774           JUNCTION      0.00   422.60     0  02:10           0      0.0659       1.500
  YS02001779           JUNCTION      0.01   427.63     0  02:10    0.000144      0.0234      -3.192
  YS02001783           JUNCTION      0.00  1156.81     0  02:13           0        3.22       0.007
  YS02001784           JUNCTION      1.06  1158.39     0  02:13      0.0305        3.26       0.017
  YS02001786           JUNCTION      0.06  1157.68     0  02:13     0.00162        3.26       0.022
  YS02001788           JUNCTION      0.07  1157.93     0  02:13     0.00204        3.26       0.009
  YS02001790           JUNCTION      0.15  1163.96     0  02:14     0.00446        3.26       0.023
  YS02001791           JUNCTION      0.00  1288.40     0  02:13           0        3.26      -0.022
  YS02001793           JUNCTION      0.00  1234.34     0  02:17           0        3.26       0.006
  YS02001882           JUNCTION      0.00    55.85     0  02:09           0      0.0124       5.444
  YS02001884           JUNCTION      0.00    76.52     0  02:09           0       0.048       5.727
  YS02001887           JUNCTION    562.52   562.55     0  02:13       0.805       0.839       0.527
  YS02001890           JUNCTION      0.00   563.29     0  02:13           0       0.798       0.651
  YS02001895           JUNCTION      0.00   514.83     0  02:14           0       0.785       0.192
  YS02001898           JUNCTION      0.00   514.49     0  02:14           0       0.783       0.056
  YS02001901           JUNCTION      0.00   514.68     0  02:14           0       0.785       0.419
  YS02001904           JUNCTION      0.00   514.64     0  02:15           0       0.789       0.365
  YS02001907           JUNCTION      0.00  1531.00     0  02:12           0        2.56       0.704
  YS02001910           JUNCTION      0.00  1034.06     0  02:12           0        1.77       0.408
  YS02001915           JUNCTION    634.92  1033.25     0  02:12        1.11        1.82       0.092
  YS02001918           JUNCTION      0.00   441.07     0  02:12           0       0.737       0.044
  YS02001920           JUNCTION      2.87   440.04     0  02:12      0.0827        0.72       0.123
  YS02001923           JUNCTION      0.04   423.19     0  02:11     0.00109       0.621      -0.137
  YS02001926           JUNCTION      0.05   585.84     0  02:11      0.0015       0.601       0.033
  YS02001929           JUNCTION    305.93   429.43     0  02:11       0.585       0.587      -0.026
  YS02006553           JUNCTION      0.00   795.94     0  02:25           0         2.1       0.572
  YS02006556           JUNCTION      0.00   796.40     0  02:25           0         2.1       0.387
  YS02006558           JUNCTION    741.30  1174.65     0  02:11        1.17        3.25       0.109
  YS02006561           JUNCTION      0.00  1177.74     0  02:11           0        3.22      -0.004
  YS02163301           JUNCTION      0.00   917.68     0  02:10           0        2.88       0.056
  YS02163601           JUNCTION      0.11  1355.24     0  02:10     0.00317        3.97       0.130
  YS02164001           JUNCTION      0.00  1354.30     0  02:10           0        3.97       0.060
  CC-1                 OUTFALL       0.00   683.00     0  00:00           0        2.59       0.000
  CC-2                 OUTFALL       0.00   683.00     0  00:00           0        2.39       0.000
  JK-1                 OUTFALL       0.00  1000.00     0  00:00           0        2.12       0.000
  JK-2                 OUTFALL       0.00  1000.00     0  00:00           0      0.0484       0.000
  WSC                  OUTFALL       0.00   549.80     0  02:35           0        4.58       0.000
  CC-storage           STORAGE       0.00  3155.80     0  02:13           0        10.5      -0.076
  JK-storage           STORAGE       0.00  1233.12     0  02:14           0        3.41       0.233
  
  
  **********************
  Node Surcharge Summary
  **********************
  
  Surcharging occurs when water rises above the top of the highest conduit.
  ---------------------------------------------------------------------
                                               Max. Height   Min. Depth
                                   Hours       Above Crown    Below Rim
  Node                 Type      Surcharged         Meters       Meters
  ---------------------------------------------------------------------
  WS02006109           JUNCTION        1.52          0.595        1.225
  WS02006110           JUNCTION        0.45          0.437        1.413
  WS02006112           JUNCTION        0.54          0.088        1.592
  WS02006228           JUNCTION        1.52          0.825        1.375
  WS02006229           JUNCTION        1.52          0.925        1.525
  WS02006230           JUNCTION        0.47          1.070        0.500
  WS02006231           JUNCTION        0.60          0.985        0.545
  WS02006232           JUNCTION        1.55          1.343        0.137
  WS02006234           JUNCTION        0.86          0.981        0.259
  WS02006235           JUNCTION        1.48          1.290        0.000
  WS02006238           JUNCTION        1.52          1.390        0.040
  WS02006239           JUNCTION        1.50          1.290        0.000
  WS02006240           JUNCTION        1.51          1.139        0.251
  WS02006242           JUNCTION        1.53          0.820        0.000
  WS02006243           JUNCTION        1.51          0.728        0.042
  WS02006245           JUNCTION        1.50          0.655        0.195
  WS02006247           JUNCTION        1.51          0.587        0.173
  WS02006248           JUNCTION        1.49          0.380        0.000
  WS02006249           JUNCTION        1.49          0.390        0.000
  WS02006251           JUNCTION        0.67          0.458        0.722
  WS02006252           JUNCTION        1.65          1.100        0.000
  WS02006256           JUNCTION        5.11          2.050        0.000
  YS02001580           JUNCTION        0.39          0.450        0.000
  YS02001583           JUNCTION        0.40          0.414        0.086
  YS02001586           JUNCTION        0.53          0.510        0.000
  YS02001590           JUNCTION        0.59          0.750        0.000
  YS02001593           JUNCTION        0.59          0.695        0.145
  YS02001596           JUNCTION        0.69          0.936        0.134
  YS02001600           JUNCTION        0.82          1.186        0.004
  YS02001601           JUNCTION        1.17          1.440        0.000
  YS02001602           JUNCTION        1.05          1.270        0.000
  YS02001605           JUNCTION        1.00          1.180        0.000
  YS02001607           JUNCTION        0.57          0.652        0.028
  YS02001610           JUNCTION        0.59          0.680        0.000
  YS02001613           JUNCTION        0.56          0.690        0.010
  YS02001616           JUNCTION        0.52          0.610        0.000
  YS02001619           JUNCTION        0.52          0.610        0.000
  YS02001622           JUNCTION        0.51          0.599        0.021
  YS02001625           JUNCTION        0.67          0.780        0.000
  YS02001629           JUNCTION        0.47          0.470        0.000
  YS02001633           JUNCTION        0.69          1.060        0.000
  YS02001641           JUNCTION        0.64          0.955        0.145
  YS02001644           JUNCTION        0.60          0.920        0.000
  YS02001647           JUNCTION        0.43          0.794        0.106
  YS02001649           JUNCTION        0.53          0.984        0.066
  YS02001652           JUNCTION        0.36          0.864        0.266
  YS02001655           JUNCTION        0.25          1.126        0.074
  YS02001658           JUNCTION        0.10          1.201        0.099
  YS02001661           JUNCTION        0.01          0.342        1.048
  YS02001748           JUNCTION        0.03          0.684        0.506
  YS02001751           JUNCTION        0.16          0.727        0.473
  YS02001754           JUNCTION        0.29          0.735        0.415
  YS02001757           JUNCTION        0.59          1.029        0.181
  YS02001759           JUNCTION        0.49          0.988        0.222
  YS02001762           JUNCTION        0.47          1.017        0.133
  YS02001765           JUNCTION        0.43          0.995        0.105
  YS02001767           JUNCTION        0.40          0.950        0.080
  YS02001770           JUNCTION        0.39          0.920        0.000
  YS02001774           JUNCTION        0.45          1.050        0.000
  YS02001779           JUNCTION        0.29          0.680        0.000
  YS02001783           JUNCTION        0.39          0.563        1.037
  YS02001784           JUNCTION        0.36          0.422        1.068
  YS02001786           JUNCTION        0.27          0.136        1.294
  YS02001882           JUNCTION        0.34          0.638        0.192
  YS02001884           JUNCTION        0.35          0.674        0.196
  YS02001887           JUNCTION        0.38          0.761        0.189
  YS02001890           JUNCTION        0.39          0.760        0.000
  YS02001895           JUNCTION        0.33          0.567        0.183
  YS02001898           JUNCTION        0.32          0.540        0.200
  YS02001901           JUNCTION        0.37          0.683        0.187
  YS02001904           JUNCTION        0.36          0.661        0.189
  YS02001907           JUNCTION        0.58          0.950        0.000
  YS02001910           JUNCTION        0.41          0.961        0.139
  YS02001915           JUNCTION        0.34          0.906        0.094
  YS02001918           JUNCTION        0.26          0.810        0.000
  YS02001920           JUNCTION        0.27          1.140        0.000
  YS02001923           JUNCTION        0.01          0.820        0.000
  YS02001926           JUNCTION        0.01          0.900        0.000
  YS02001929           JUNCTION        0.01          0.780        0.000
  YS02006553           JUNCTION        0.60          0.989        0.201
  YS02006556           JUNCTION        0.50          0.934        0.416
  YS02006558           JUNCTION        0.49          0.936        0.464
  YS02006561           JUNCTION        0.23          0.232        0.918
  YS02163301           JUNCTION        0.67          1.030        0.000
  YS02163601           JUNCTION        0.72          1.047        0.033
  YS02164001           JUNCTION        0.64          0.965        0.135
  
  
  *********************
  Node Flooding Summary
  *********************
  
  Flooding refers to all water that overflows a node, whether it ponds or not.
  --------------------------------------------------------------------------
                                                             Total   Maximum
                                 Maximum   Time of Max       Flood    Ponded
                        Hours       Rate    Occurrence      Volume     Depth
  Node                 Flooded       LPS   days hr:min    10^6 ltr    Meters
  --------------------------------------------------------------------------
  WS02006235              0.01     12.71      0  02:46       0.000     0.000
  WS02006239              0.01      3.74      0  02:46       0.000     0.000
  WS02006242              0.01     24.33      0  02:46       0.000     0.000
  WS02006248              0.01     23.18      0  02:15       0.000     0.000
  WS02006249              0.64    103.78      0  02:11       0.150     0.000
  WS02006252              0.01    245.63      0  00:00       0.000     0.000
  WS02006256              0.97    293.19      0  00:00       0.317     0.000
  YS02001580              0.01    107.94      0  02:08       0.000     0.000
  YS02001586              0.28    154.78      0  02:15       0.089     0.000
  YS02001590              0.01     40.32      0  02:06       0.000     0.000
  YS02001601              0.46    789.84      0  02:14       0.730     0.000
  YS02001602              0.37     61.95      0  02:20       0.073     0.000
  YS02001605              0.01      0.16      0  02:10       0.000     0.000
  YS02001610              0.32    336.62      0  02:15       0.229     0.000
  YS02001616              0.01      1.51      0  02:10       0.000     0.000
  YS02001619              0.01      2.54      0  02:10       0.000     0.000
  YS02001625              0.30    978.85      0  02:16       0.518     0.000
  YS02001629              0.05    120.98      0  02:08       0.011     0.000
  YS02001633              0.01     12.03      0  02:08       0.000     0.000
  YS02001644              0.07    379.24      0  02:13       0.053     0.000
  YS02001770              0.01     63.59      0  02:11       0.000     0.000
  YS02001774              0.01      8.57      0  02:11       0.000     0.000
  YS02001779              0.04    335.79      0  02:10       0.006     0.000
  YS02001890              0.06     59.61      0  02:13       0.008     0.000
  YS02001907              0.21   1093.64      0  02:12       0.450     0.000
  YS02001918              0.01    211.42      0  02:11       0.003     0.000
  YS02001920              0.01     52.77      0  02:11       0.000     0.000
  YS02001923              0.01    135.74      0  02:11       0.000     0.000
  YS02001926              0.01    163.42      0  02:11       0.001     0.000
  YS02001929              0.01     70.76      0  02:11       0.000     0.000
  YS02163301              0.01     32.18      0  02:08       0.000     0.000
  
  
  **********************
  Storage Volume Summary
  **********************
  
  ------------------------------------------------------------------------------------------------
                         Average    Avg   Evap  Exfil     Maximum    Max    Time of Max    Maximum
                          Volume   Pcnt   Pcnt   Pcnt      Volume   Pcnt     Occurrence    Outflow
  Storage Unit           1000 m³   Full   Loss   Loss     1000 m³   Full    days hr:min        LPS
  ------------------------------------------------------------------------------------------------
  CC-storage               2.598   40.5    0.0    0.0       4.430   69.1       0  02:33    1783.53
  JK-storage               0.158   54.2    0.0    0.0       0.212   72.8       0  02:15    2300.00
  
  
  ***********************
  Outfall Loading Summary
  ***********************
  
  -----------------------------------------------------------
                         Flow       Avg       Max       Total
                         Freq      Flow      Flow      Volume
  Outfall Node           Pcnt       LPS       LPS    10^6 ltr
  -----------------------------------------------------------
  CC-1                  14.42    683.00    683.00       2.585
  CC-2                  13.30    683.00    683.00       2.387
  JK-1                   9.85   1000.00   1000.00       2.116
  JK-2                   0.15   1000.00   1000.00       0.048
  WSC                   99.96    229.71    549.80       4.584
  -----------------------------------------------------------
  System                27.54   3595.71   3366.23      11.721
  
  
  ********************
  Link Flow Summary
  ********************
  
  -----------------------------------------------------------------------------
                                 Maximum  Time of Max   Maximum    Max/    Max/
                                  |Flow|   Occurrence   |Veloc|    Full    Full
  Link                 Type          LPS  days hr:min     m/sec    Flow   Depth
  -----------------------------------------------------------------------------
  1                    CONDUIT    549.80     0  02:35      2.82    0.19    0.30
  WS02003060WS02003069 CONDUIT    548.30     0  02:33      1.64    0.21    0.34
  WS02003066WSF200     CONDUIT    531.86     0  02:33      2.85    0.09    0.22
  WS02003067WS02003066 CONDUIT    531.80     0  02:33      1.20    0.17    0.41
  WS02003069WS02003072 CONDUIT    548.09     0  02:34      1.37    0.26    0.39
  WS02003072WS02003073 CONDUIT    548.21     0  02:34      1.43    1.18    0.37
  WS02004401WS02004402 CONDUIT    537.33     0  02:28      0.98    0.65    0.86
  WS02004402WS02004403 CONDUIT    537.22     0  02:27      0.97    0.77    0.88
  WS02004403WS02004404 CONDUIT    535.00     0  02:26      0.92    0.39    0.93
  WS02004404WS02004405 CONDUIT    535.19     0  02:28      1.08    5.24    0.96
  WS02004405WS02004406 CONDUIT    536.22     0  02:28      0.99    1.06    0.95
  WS02004406WS02004407 CONDUIT    534.60     0  02:26      1.04    0.24    0.62
  WS02004407WS02004409 CONDUIT    534.32     0  02:26      1.53    0.19    0.48
  WS02004409WS02004410 CONDUIT    533.58     0  02:31      1.00    0.69    0.67
  WS02004410WS02004411 CONDUIT    532.46     0  02:32      0.95    0.73    0.68
  WS02004411WS02004412 CONDUIT    532.09     0  02:31      0.92    0.76    0.69
  WS02004412WS02004413 CONDUIT    532.12     0  02:32      0.82    0.36    0.77
  WS02004413WS02003067 CONDUIT    531.70     0  02:32      1.10    0.23    0.59
  WS02006109WS02006110 CONDUIT    563.59     0  02:37      1.12    1.08    1.00
  WS02006110WS02006113 CONDUIT    570.63     0  02:37      1.38    0.52    0.79
  WS02006111WS02006112 CONDUIT    542.13     0  02:33      1.81    0.26    0.67
  WS02006112WS02006115 CONDUIT    556.41     0  02:38      0.82    0.33    0.87
  WS02006113WS02006111 CONDUIT    560.36     0  02:33      2.47    0.67    0.46
  WS02006115WS02006116 CONDUIT    540.59     0  02:38      0.99    0.69    0.76
  WS02006116WS02004401 CONDUIT    539.01     0  02:39      0.98    0.74    0.84
  WS02006228WS02006109 CONDUIT    562.26     0  02:37      1.12    2.46    1.00
  WS02006229WS02006228 CONDUIT    561.81     0  02:37      1.14    1.86    1.00
  WS02006230WS02006229 CONDUIT    561.98     0  02:37      1.46   12.51    1.00
  WS02006231WS02006230 CONDUIT    580.41     0  02:15      1.58    8.80    1.00
  WS02006232WS02006231 CONDUIT    573.18     0  02:37      1.49    1.20    1.00
  WS02006234WS02006232 CONDUIT    572.49     0  02:37      1.49    1.16    1.00
  WS02006235WS02006234 CONDUIT    568.15     0  02:37      1.48    5.99    1.00
  WS02006238WS02006235 CONDUIT    424.01     0  02:45      1.57    0.95    1.00
  WS02006239WS02006238 CONDUIT    424.86     0  02:45      1.10    1.36    1.00
  WS02006240WS02006239 CONDUIT    423.54     0  02:45      1.24    1.33    1.00
  WS02006242WS02006240 CONDUIT    423.09     0  02:45      1.13    1.68    1.00
  WS02006243WS02006242 CONDUIT    422.87     0  02:45      1.40    0.90    1.00
  WS02006245WS02006243 CONDUIT    422.66     0  02:45      1.45    1.25    1.00
  WS02006247WS02006245 CONDUIT    423.22     0  02:45      1.43    3.36    1.00
  WS02006248WS02006247 CONDUIT    423.35     0  02:45      1.44    0.92    1.00
  WS02006249WS02006248 CONDUIT    422.94     0  02:45      1.36    2.32    1.00
  WS02006251WS02006249 CONDUIT    459.02     0  00:00      1.99    1.32    1.00
  WS02006252WS02006251 CONDUIT    410.01     0  02:11     24.61    1.50    1.00
  WS02006256WS02006235 CONDUIT    289.22     0  01:58      4.23    3.06    1.00
  WSF200WS02003060     CONDUIT    532.29     0  02:31      2.06    0.12    0.28
  YS02001580YS02001583 CONDUIT    127.70     0  02:08      0.67    0.49    1.00
  YS02001583YS02001586 CONDUIT    161.45     0  02:08      0.67    0.24    1.00
  YS02001586YS02001590 CONDUIT    317.97     0  02:15      1.25    0.56    1.00
  YS02001590YS02001593 CONDUIT    317.99     0  02:17      1.12    2.00    1.00
  YS02001593YS02001596 CONDUIT    317.95     0  02:18      1.72    0.50    1.00
  YS02001596YS02001600 CONDUIT    318.09     0  02:17      1.22    0.62    1.00
  YS02001600YS02001601 CONDUIT    317.92     0  02:17      1.12    0.55    1.00
  YS02001601YS02001602 CONDUIT    519.47     0  02:07      1.84    1.88    1.00
  YS02001602YS02001605 CONDUIT    519.47     0  02:07      1.84   10.99    1.00
  YS02001605YS02001607 CONDUIT    519.14     0  02:07      1.84    2.85    1.00
  YS02001607YS02001610 CONDUIT    520.84     0  02:07      0.66    0.50    1.00
  YS02001610YS02001613 CONDUIT    521.93     0  02:07      0.66    0.60    1.00
  YS02001613YS02001616 CONDUIT    520.72     0  02:07      0.67    0.45    1.00
  YS02001616YS02001619 CONDUIT    506.03     0  02:07      0.67    0.88    1.00
  YS02001619YS02001622 CONDUIT    924.58     0  02:07      1.19    1.36    1.00
  YS02001622YS02001625 CONDUIT    929.73     0  02:07      1.18    0.50    1.00
  YS02001625YS02001629 CONDUIT    930.50     0  02:07      1.19    0.44    1.00
  YS02001629YS02163301 CONDUIT    917.68     0  02:10      1.17    1.13    1.00
  YS02001633YS02163601 CONDUIT   1355.13     0  02:10      1.73    1.42    1.00
  YS02001641YS02001644 CONDUIT   1358.74     0  02:10      1.73    4.39    1.00
  YS02001644YS02001647 CONDUIT   1753.69     0  02:10      2.25    1.03    1.00
  YS02001647YS02001649 CONDUIT   1764.51     0  02:10      2.33    0.93    1.00
  YS02001649YS02001757 CONDUIT   1904.13     0  02:10      2.43    1.16    1.00
  YS02001652YS02001649 CONDUIT    716.58     0  02:13      0.91    0.36    1.00
  YS02001655YS02001652 CONDUIT    715.93     0  02:13      1.32    0.35    1.00
  YS02001658YS02001655 CONDUIT    715.59     0  02:13      1.91    0.30    1.00
  YS02001661YS02001658 CONDUIT    714.37     0  02:13      2.30    0.28    1.00
  YS02001664YS02001661 CONDUIT    750.57     0  02:13      2.27    0.24    0.78
  YS02001745YS02001748 CONDUIT    583.27     0  02:12      2.15    0.22    0.89
  YS02001748YS02001751 CONDUIT    441.37     0  02:13      1.69    0.22    1.00
  YS02001751YS02001754 CONDUIT    440.91     0  02:13      1.47    0.21    1.00
  YS02001754YS02001757 CONDUIT    440.63     0  02:13      0.56    0.18    1.00
  YS02001757CaochengTiaoxuchi CONDUIT   3155.80     0  02:13      4.02    1.37    1.00
  YS02001759YS02001757 CONDUIT   1222.58     0  02:14      1.56    0.87    1.00
  YS02001762YS02001759 CONDUIT    722.77     0  02:14      0.92    0.83    1.00
  YS02001765YS02001762 CONDUIT    722.04     0  02:14      0.92    0.68    1.00
  YS02001767YS02001765 CONDUIT    720.77     0  02:14      0.92    0.91    1.00
  YS02001770YS02001767 CONDUIT    719.29     0  02:14      0.92    2.85    1.00
  YS02001774YS02001770 CONDUIT    422.60     0  02:10      0.54    0.27    1.00
  YS02001779YS02001774 CONDUIT    427.63     0  02:10      0.55    0.22    1.00
  YS02001783YS02001784 CONDUIT   1157.33     0  02:13      2.30    1.60    1.00
  YS02001784YS02001785 CONDUIT   1157.63     0  02:13      2.30    2.69    1.00
  YS02001786YS02001788 CONDUIT   1157.86     0  02:13      2.47    2.23    0.89
  YS02001788YS02001790 CONDUIT   1163.80     0  02:14      2.70    0.86    0.84
  YS02001790YS02001791 CONDUIT   1288.40     0  02:13      3.43    1.40    0.70
  YS02001791YS02001793 CONDUIT   1234.34     0  02:17      6.64    0.53    0.44
  YS02001793JiankangQianchi CONDUIT   1233.12     0  02:14      2.43    0.10    0.65
  YS02001882YS02001884 CONDUIT     55.85     0  02:09      0.09    0.06    1.00
  YS02001884YS02001887 CONDUIT     76.52     0  02:09      0.10    0.10    1.00
  YS02001887YS02001890 CONDUIT    563.29     0  02:13      0.72    0.96    1.00
  YS02001890YS02001895 CONDUIT    514.83     0  02:14      0.66    0.24    1.00
  YS02001895YS02001898 CONDUIT    514.49     0  02:14      0.66    0.89    1.00
  YS02001898YS02001901 CONDUIT    514.68     0  02:14      0.66    0.33    1.00
  YS02001901YS02001904 CONDUIT    514.64     0  02:15      0.66    0.80    1.00
  YS02001904YS02001907 CONDUIT    514.68     0  02:15      0.66    0.18    1.00
  YS02001907YS02006553 CONDUIT    795.94     0  02:25      0.88    0.94    1.00
  YS02001910YS02001907 CONDUIT   1033.30     0  02:12      1.32    0.58    1.00
  YS02001915YS02001910 CONDUIT   1034.06     0  02:12      1.32    0.51    1.00
  YS02001918YS02001915 CONDUIT    442.71     0  02:12      0.56    0.24    1.00
  YS02001920YS02001918 CONDUIT    441.07     0  02:12      0.66    0.43    1.00
  YS02001923YS02001920 CONDUIT    437.17     0  02:12      0.70    0.20    1.00
  YS02001926YS02001923 CONDUIT    419.93     0  02:11      0.96    0.60    1.00
  YS02001929YS02001926 CONDUIT    399.05     0  02:12      1.13    0.19    1.00
  YS02006553YS02006556 CONDUIT    796.40     0  02:25      1.01    0.68    1.00
  YS02006556YS02006558 CONDUIT    799.57     0  02:25      1.02    0.63    1.00
  YS02006558YS02006561 CONDUIT   1177.74     0  02:11      4.17    2.60    1.00
  YS02006561YS02001783 CONDUIT   1156.81     0  02:13      2.30    0.60    1.00
  YS02163301YS02001633 CONDUIT    917.91     0  02:10      1.17    0.86    1.00
  YS02163601YS02164001 CONDUIT   1354.30     0  02:10      1.72    1.20    1.00
  YS02164001YS02001641 CONDUIT   1356.14     0  02:10      1.73    1.85    1.00
  CC-R1                PUMP       683.00     0  00:00              1.00
  CC-R2                PUMP       683.00     0  00:00              1.00
  CC-S1                PUMP       200.00     0  00:00              1.00
  CC-S2                PUMP       200.00     0  00:00              1.00
  JK-R1                PUMP      1000.00     0  00:00              1.00
  JK-R2                PUMP      1000.00     0  00:00              1.00
  JK-S                 PUMP       300.00     0  00:00              1.00
  
  
  ***************************
  Flow Classification Summary
  ***************************
  
  -------------------------------------------------------------------------------------
                      Adjusted    ---------- Fraction of Time in Flow Class ---------- 
                       /Actual         Up    Down  Sub   Sup   Up    Down  Norm  Inlet 
  Conduit               Length    Dry  Dry   Dry   Crit  Crit  Crit  Crit  Ltd   Ctrl  
  -------------------------------------------------------------------------------------
  1                       1.00   0.00  0.00  0.00  0.00  1.00  0.00  0.00  0.53  0.00
  WS02003060WS02003069    1.00   0.00  0.00  0.00  0.98  0.02  0.00  0.00  0.75  0.00
  WS02003066WSF200        1.00   0.13  0.00  0.00  0.00  0.87  0.00  0.00  0.80  0.00
  WS02003067WS02003066    1.00   0.10  0.02  0.00  0.88  0.00  0.00  0.00  0.00  0.00
  WS02003069WS02003072    1.00   0.00  0.00  0.00  0.99  0.01  0.00  0.00  0.78  0.00
  WS02003072WS02003073    1.00   0.00  0.00  0.00  0.00  0.00  0.00  1.00  0.00  0.00
  WS02004401WS02004402    1.00   0.02  0.00  0.00  0.98  0.00  0.00  0.00  0.00  0.00
  WS02004402WS02004403    1.00   0.02  0.00  0.00  0.97  0.00  0.00  0.00  0.00  0.00
  WS02004403WS02004404    1.00   0.00  0.03  0.00  0.97  0.00  0.00  0.00  0.00  0.00
  WS02004404WS02004405    1.00   0.00  0.00  0.00  1.00  0.00  0.00  0.00  0.00  0.00
  WS02004405WS02004406    1.00   0.00  0.00  0.00  1.00  0.00  0.00  0.00  0.00  0.00
  WS02004406WS02004407    1.00   0.00  0.05  0.00  0.95  0.00  0.00  0.00  0.00  0.00
  WS02004407WS02004409    1.00   0.05  0.00  0.00  0.94  0.01  0.00  0.00  0.94  0.00
  WS02004409WS02004410    1.00   0.05  0.00  0.00  0.95  0.00  0.00  0.00  0.03  0.00
  WS02004410WS02004411    1.00   0.05  0.00  0.00  0.95  0.00  0.00  0.00  0.01  0.00
  WS02004411WS02004412    1.00   0.05  0.00  0.00  0.95  0.00  0.00  0.00  0.00  0.00
  WS02004412WS02004413    1.00   0.05  0.00  0.00  0.94  0.00  0.00  0.00  0.01  0.00
  WS02004413WS02003067    1.00   0.06  0.04  0.00  0.00  0.00  0.90  0.00  0.00  0.00
  WS02006109WS02006110    1.00   0.00  0.01  0.00  0.98  0.00  0.01  0.00  0.00  0.00
  WS02006110WS02006113    1.00   0.01  0.01  0.00  0.98  0.00  0.00  0.00  0.00  0.00
  WS02006111WS02006112    1.00   0.02  0.00  0.00  0.98  0.00  0.00  0.00  0.98  0.00
  WS02006112WS02006115    1.00   0.02  0.00  0.00  0.97  0.00  0.00  0.00  0.00  0.00
  WS02006113WS02006111    1.00   0.02  0.00  0.00  0.00  0.98  0.00  0.00  0.11  0.00
  WS02006115WS02006116    1.00   0.02  0.00  0.00  0.97  0.00  0.00  0.01  0.00  0.00
  WS02006116WS02004401    1.00   0.02  0.00  0.00  0.98  0.00  0.00  0.00  0.00  0.00
  WS02006228WS02006109    1.00   0.00  0.00  0.00  1.00  0.00  0.00  0.00  0.00  0.00
  WS02006229WS02006228    1.00   0.00  0.00  0.00  0.99  0.00  0.00  0.01  0.00  0.00
  WS02006230WS02006229    1.00   0.00  0.00  0.00  0.99  0.00  0.00  0.01  0.01  0.00
  WS02006231WS02006230    1.00   0.00  0.00  0.00  0.20  0.00  0.79  0.00  0.00  0.00
  WS02006232WS02006231    1.00   0.00  0.00  0.00  0.99  0.00  0.01  0.00  0.00  0.00
  WS02006234WS02006232    1.00   0.00  0.00  0.00  1.00  0.00  0.00  0.00  0.26  0.00
  WS02006235WS02006234    1.00   0.00  0.00  0.00  0.69  0.00  0.31  0.00  0.00  0.00
  WS02006238WS02006235    1.00   0.00  0.00  0.00  1.00  0.00  0.00  0.00  0.00  0.00
  WS02006239WS02006238    1.00   0.00  0.00  0.00  1.00  0.00  0.00  0.00  0.37  0.00
  WS02006240WS02006239    1.00   0.00  0.00  0.00  0.55  0.00  0.00  0.45  0.03  0.00
  WS02006242WS02006240    1.00   0.00  0.00  0.00  0.99  0.00  0.01  0.00  0.00  0.00
  WS02006243WS02006242    1.00   0.00  0.00  0.00  0.98  0.00  0.00  0.01  0.58  0.00
  WS02006245WS02006243    1.00   0.00  0.00  0.00  0.63  0.00  0.00  0.37  0.01  0.00
  WS02006247WS02006245    1.00   0.00  0.00  0.00  0.98  0.00  0.00  0.02  0.00  0.00
  WS02006248WS02006247    1.00   0.00  0.00  0.00  0.99  0.00  0.00  0.01  0.25  0.00
  WS02006249WS02006248    1.00   0.00  0.00  0.00  0.43  0.00  0.57  0.00  0.00  0.00
  WS02006251WS02006249    1.00   0.00  0.00  0.00  0.99  0.01  0.00  0.00  0.59  0.00
  WS02006252WS02006251    1.00   0.00  0.60  0.00  0.08  0.00  0.31  0.00  0.00  0.00
  WS02006256WS02006235    1.00   0.00  0.00  0.00  0.99  0.01  0.00  0.00  0.00  0.00
  WSF200WS02003060        1.00   0.00  0.13  0.00  0.40  0.47  0.00  0.00  0.53  0.00
  YS02001580YS02001583    1.00   0.26  0.57  0.00  0.17  0.00  0.00  0.00  0.66  0.00
  YS02001583YS02001586    1.00   0.43  0.35  0.00  0.22  0.00  0.00  0.00  0.66  0.00
  YS02001586YS02001590    1.00   0.13  0.00  0.00  0.41  0.05  0.00  0.42  0.37  0.00
  YS02001590YS02001593    1.00   0.13  0.01  0.00  0.09  0.00  0.78  0.00  0.00  0.00
  YS02001593YS02001596    1.00   0.14  0.00  0.00  0.10  0.01  0.00  0.75  0.02  0.00
  YS02001596YS02001600    1.00   0.14  0.00  0.00  0.17  0.01  0.00  0.68  0.05  0.00
  YS02001600YS02001601    1.00   0.13  0.01  0.00  0.86  0.00  0.00  0.00  0.63  0.00
  YS02001601YS02001602    1.00   0.13  0.01  0.00  0.86  0.00  0.00  0.00  0.00  0.00
  YS02001602YS02001605    1.00   0.14  0.00  0.00  0.86  0.00  0.00  0.00  0.00  0.00
  YS02001605YS02001607    1.00   0.14  0.00  0.00  0.86  0.00  0.00  0.00  0.00  0.00
  YS02001607YS02001610    1.00   0.13  0.01  0.00  0.86  0.00  0.00  0.00  0.02  0.00
  YS02001610YS02001613    1.00   0.13  0.00  0.00  0.87  0.00  0.00  0.00  0.01  0.00
  YS02001613YS02001616    1.00   0.13  0.00  0.00  0.87  0.00  0.00  0.00  0.01  0.00
  YS02001616YS02001619    1.00   0.13  0.00  0.00  0.87  0.00  0.00  0.00  0.00  0.00
  YS02001619YS02001622    1.00   0.13  0.00  0.00  0.87  0.00  0.00  0.00  0.29  0.00
  YS02001622YS02001625    1.00   0.13  0.00  0.00  0.87  0.00  0.00  0.00  0.06  0.00
  YS02001625YS02001629    1.00   0.13  0.06  0.00  0.13  0.00  0.68  0.00  0.00  0.00
  YS02001629YS02163301    1.00   0.16  0.01  0.00  0.83  0.00  0.00  0.00  0.00  0.00
  YS02001633YS02163601    1.00   0.00  0.01  0.00  0.99  0.00  0.00  0.00  0.15  0.00
  YS02001641YS02001644    1.00   0.00  0.01  0.00  0.99  0.00  0.00  0.00  0.00  0.00
  YS02001644YS02001647    1.00   0.00  0.19  0.00  0.81  0.00  0.00  0.00  0.00  0.00
  YS02001647YS02001649    1.00   0.00  0.19  0.00  0.51  0.31  0.00  0.00  0.57  0.00
  YS02001649YS02001757    1.00   0.00  0.00  0.00  0.81  0.19  0.00  0.00  0.43  0.00
  YS02001652YS02001649    1.00   0.00  0.00  0.00  0.96  0.04  0.00  0.00  0.78  0.00
  YS02001655YS02001652    1.00   0.00  0.00  0.00  0.14  0.02  0.00  0.84  0.05  0.00
  YS02001658YS02001655    1.00   0.00  0.15  0.00  0.63  0.22  0.00  0.00  0.73  0.00
  YS02001661YS02001658    1.00   0.15  0.00  0.00  0.47  0.38  0.00  0.00  0.73  0.00
  YS02001664YS02001661    1.00   0.13  0.00  0.00  0.78  0.09  0.00  0.00  0.86  0.00
  YS02001745YS02001748    1.00   0.00  0.00  0.00  0.07  0.01  0.00  0.93  0.04  0.00
  YS02001748YS02001751    1.00   0.00  0.00  0.00  0.81  0.19  0.00  0.00  0.78  0.00
  YS02001751YS02001754    1.00   0.00  0.00  0.00  0.12  0.00  0.00  0.88  0.02  0.00
  YS02001754YS02001757    1.00   0.00  0.00  0.00  1.00  0.00  0.00  0.00  0.87  0.00
  YS02001757CaochengTiaoxuchi    1.00   0.00  0.00  0.00  1.00  0.00  0.00  0.00  0.62  0.00
  YS02001759YS02001757    1.00   0.00  0.00  0.00  1.00  0.00  0.00  0.00  0.56  0.00
  YS02001762YS02001759    1.00   0.00  0.00  0.00  1.00  0.00  0.00  0.00  0.07  0.00
  YS02001765YS02001762    1.00   0.00  0.00  0.00  1.00  0.00  0.00  0.00  0.73  0.00
  YS02001767YS02001765    1.00   0.00  0.00  0.00  1.00  0.00  0.00  0.00  0.01  0.00
  YS02001770YS02001767    1.00   0.00  0.00  0.00  1.00  0.00  0.00  0.00  0.00  0.00
  YS02001774YS02001770    1.00   0.00  0.14  0.00  0.69  0.00  0.17  0.00  0.04  0.00
  YS02001779YS02001774    1.00   0.00  0.00  0.00  1.00  0.00  0.00  0.00  0.81  0.00
  YS02001783YS02001784    1.00   0.00  0.19  0.00  0.81  0.00  0.00  0.00  0.56  0.00
  YS02001784YS02001785    1.00   0.00  0.00  0.00  1.00  0.00  0.00  0.00  0.18  0.00
  YS02001786YS02001788    1.00   0.00  0.00  0.00  0.80  0.20  0.00  0.00  0.00  0.00
  YS02001788YS02001790    1.00   0.00  0.00  0.00  0.22  0.78  0.00  0.00  0.83  0.00
  YS02001790YS02001791    1.00   0.00  0.00  0.00  0.01  0.99  0.00  0.00  0.15  0.00
  YS02001791YS02001793    1.00   0.00  0.00  0.00  0.00  1.00  0.00  0.00  0.01  0.00
  YS02001793JiankangQianchi    1.00   0.00  0.00  0.00  0.99  0.00  0.00  0.00  0.96  0.00
  YS02001882YS02001884    1.00   0.16  0.01  0.00  0.83  0.00  0.00  0.00  0.00  0.00
  YS02001884YS02001887    1.00   0.06  0.05  0.00  0.89  0.00  0.00  0.00  0.00  0.00
  YS02001887YS02001890    1.00   0.00  0.00  0.00  0.97  0.00  0.03  0.00  0.00  0.00
  YS02001890YS02001895    1.00   0.00  0.17  0.00  0.82  0.00  0.00  0.00  0.00  0.00
  YS02001895YS02001898    1.00   0.18  0.00  0.00  0.80  0.00  0.02  0.00  0.00  0.00
  YS02001898YS02001901    1.00   0.18  0.00  0.00  0.82  0.00  0.00  0.00  0.01  0.00
  YS02001901YS02001904    1.00   0.18  0.00  0.00  0.82  0.00  0.00  0.00  0.00  0.00
  YS02001904YS02001907    1.00   0.00  0.17  0.00  0.82  0.00  0.00  0.00  0.00  0.00
  YS02001907YS02006553    1.00   0.00  0.02  0.00  0.98  0.00  0.00  0.00  0.00  0.00
  YS02001910YS02001907    1.00   0.00  0.00  0.00  0.97  0.00  0.00  0.03  0.12  0.00
  YS02001915YS02001910    1.00   0.00  0.00  0.00  0.96  0.04  0.00  0.00  0.17  0.00
  YS02001918YS02001915    1.00   0.00  0.01  0.00  0.98  0.02  0.00  0.00  0.77  0.00
  YS02001920YS02001918    1.00   0.00  0.01  0.00  0.99  0.00  0.00  0.00  0.00  0.00
  YS02001923YS02001920    1.00   0.00  0.00  0.00  1.00  0.00  0.00  0.00  0.94  0.00
  YS02001926YS02001923    1.00   0.00  0.07  0.00  0.04  0.00  0.88  0.00  0.00  0.00
  YS02001929YS02001926    1.00   0.00  0.13  0.00  0.87  0.00  0.00  0.00  0.84  0.00
  YS02006553YS02006556    1.00   0.01  0.00  0.00  0.99  0.00  0.00  0.00  0.03  0.00
  YS02006556YS02006558    1.00   0.00  0.00  0.00  1.00  0.00  0.00  0.00  0.00  0.00
  YS02006558YS02006561    1.00   0.19  0.00  0.00  0.04  0.77  0.00  0.00  0.19  0.00
  YS02006561YS02001783    1.00   0.19  0.00  0.00  0.07  0.74  0.00  0.00  0.70  0.00
  YS02163301YS02001633    1.00   0.00  0.16  0.00  0.84  0.00  0.00  0.00  0.00  0.00
  YS02163601YS02164001    1.00   0.00  0.08  0.00  0.92  0.00  0.00  0.00  0.00  0.00
  YS02164001YS02001641    1.00   0.01  0.07  0.00  0.92  0.00  0.00  0.00  0.06  0.00
  
  
  *************************
  Conduit Surcharge Summary
  *************************
  
  ----------------------------------------------------------------------------
                                                           Hours        Hours 
                         --------- Hours Full --------   Above Full   Capacity
  Conduit                Both Ends  Upstream  Dnstream   Normal Flow   Limited
  ----------------------------------------------------------------------------
  WS02003072WS02003073        0.01      0.01      0.01      0.90         0.01
  WS02004404WS02004405        0.01      0.01      0.01      2.93         0.01
  WS02004405WS02004406        0.01      0.01      0.01      0.46         0.01
  WS02006109WS02006110        0.45      0.45      1.55      0.58         0.01
  WS02006110WS02006113        0.01      0.01      1.53      0.01         0.01
  WS02006111WS02006112        0.01      0.01      1.77      0.01         0.01
  WS02006112WS02006115        0.01      0.01      0.54      0.01         0.01
  WS02006228WS02006109        1.52      1.55      1.52      2.08         1.52
  WS02006229WS02006228        1.52      1.52      1.52      1.73         1.50
  WS02006230WS02006229        1.60      1.69      1.60      3.64         1.60
  WS02006231WS02006230        0.46      0.46      0.65      3.28         0.01
  WS02006232WS02006231        0.60      0.60      1.55      0.66         0.01
  WS02006234WS02006232        1.47      1.47      1.55      0.65         0.64
  WS02006235WS02006234        0.85      0.86      1.48      3.12         0.02
  WS02006238WS02006235        1.50      1.50      1.55      0.01         0.01
  WS02006239WS02006238        1.52      1.53      1.52      1.55         1.37
  WS02006240WS02006239        1.50      1.51      1.50      1.55         1.30
  WS02006242WS02006240        1.51      1.51      1.54      1.67         0.01
  WS02006243WS02006242        1.51      1.51      1.53      0.01         0.05
  WS02006245WS02006243        1.50      1.51      1.51      1.06         1.04
  WS02006247WS02006245        1.50      1.51      1.50      2.97         1.49
  WS02006248WS02006247        1.50      1.50      1.51      0.01         0.05
  WS02006249WS02006248        1.49      1.49      1.49      2.93         0.01
  WS02006251WS02006249        1.49      1.49      1.49      1.61         1.43
  WS02006252WS02006251        1.64      1.64      1.65      1.64         0.01
  WS02006256WS02006235        3.10      3.15      5.08      0.97         0.01
  YS02001580YS02001583        0.39      0.39      0.44      0.01         0.01
  YS02001583YS02001586        0.40      0.40      0.53      0.01         0.01
  YS02001586YS02001590        0.53      0.53      0.59      0.01         0.01
  YS02001590YS02001593        0.59      0.59      0.61      0.62         0.01
  YS02001593YS02001596        0.60      0.60      0.69      0.01         0.01
  YS02001596YS02001600        0.74      0.74      0.82      0.01         0.01
  YS02001600YS02001601        0.88      0.88      1.17      0.01         0.01
  YS02001601YS02001602        1.05      1.05      1.20      0.82         0.01
  YS02001602YS02001605        1.00      1.00      1.05      2.04         0.01
  YS02001605YS02001607        0.95      1.00      0.95      1.13         0.95
  YS02001607YS02001610        0.57      0.57      0.59      0.01         0.01
  YS02001610YS02001613        0.56      0.56      0.59      0.01         0.01
  YS02001613YS02001616        0.52      0.52      0.56      0.01         0.01
  YS02001616YS02001619        0.52      0.52      0.52      0.01         0.01
  YS02001619YS02001622        0.51      0.52      0.51      0.60         0.48
  YS02001622YS02001625        0.51      0.51      0.67      0.01         0.01
  YS02001625YS02001629        0.47      0.47      0.67      0.01         0.01
  YS02001629YS02163301        0.67      0.67      0.67      0.07         0.13
  YS02001633YS02163601        0.69      0.69      0.72      0.29         0.29
  YS02001641YS02001644        0.60      0.64      0.60      1.25         0.60
  YS02001644YS02001647        0.43      0.43      0.60      0.02         0.01
  YS02001647YS02001649        0.43      0.43      0.53      0.01         0.01
  YS02001649YS02001757        0.53      0.53      0.59      0.06         0.04
  YS02001652YS02001649        0.38      0.38      0.53      0.01         0.01
  YS02001655YS02001652        0.25      0.25      0.36      0.01         0.01
  YS02001658YS02001655        0.10      0.10      0.25      0.01         0.01
  YS02001661YS02001658        0.01      0.01      0.10      0.01         0.01
  YS02001664YS02001661        0.01      0.01      0.01      0.01         0.01
  YS02001745YS02001748        0.01      0.01      0.03      0.01         0.01
  YS02001748YS02001751        0.08      0.08      0.16      0.01         0.01
  YS02001751YS02001754        0.16      0.16      0.29      0.01         0.01
  YS02001754YS02001757        0.32      0.32      0.59      0.01         0.01
  YS02001757CaochengTiaoxuchi        0.59      0.59      1.50      0.22         0.22
  YS02001759YS02001757        0.49      0.49      0.59      0.01         0.01
  YS02001762YS02001759        0.47      0.47      0.49      0.01         0.01
  YS02001765YS02001762        0.43      0.43      0.47      0.01         0.01
  YS02001767YS02001765        0.40      0.40      0.43      0.01         0.02
  YS02001770YS02001767        0.40      0.40      0.40      0.39         0.28
  YS02001774YS02001770        0.39      0.39      0.45      0.01         0.01
  YS02001779YS02001774        0.29      0.29      0.45      0.01         0.01
  YS02001783YS02001784        0.36      0.39      0.36      0.52         0.36
  YS02001784YS02001785        0.27      0.36      0.27      0.71         0.27
  YS02001786YS02001788        0.01      0.27      0.01      0.61         0.01
  YS02001790YS02001791        0.01      0.01      0.01      0.35         0.01
  YS02001793JiankangQianchi        0.01      0.01      7.70      0.01         0.01
  YS02001882YS02001884        0.34      0.34      0.35      0.01         0.01
  YS02001884YS02001887        0.37      0.37      0.38      0.01         0.01
  YS02001887YS02001890        0.39      0.39      0.40      0.01         0.01
  YS02001890YS02001895        0.33      0.33      0.42      0.01         0.01
  YS02001895YS02001898        0.32      0.32      0.33      0.01         0.01
  YS02001898YS02001901        0.33      0.33      0.37      0.01         0.01
  YS02001901YS02001904        0.36      0.36      0.37      0.01         0.01
  YS02001904YS02001907        0.36      0.36      0.60      0.01         0.01
  YS02001907YS02006553        0.72      0.72      0.79      0.01         0.01
  YS02001910YS02001907        0.41      0.41      0.58      0.01         0.01
  YS02001915YS02001910        0.34      0.34      0.41      0.01         0.01
  YS02001918YS02001915        0.26      0.26      0.34      0.01         0.01
  YS02001920YS02001918        0.26      0.26      0.27      0.01         0.01
  YS02001923YS02001920        0.22      0.22      0.27      0.01         0.01
  YS02001926YS02001923        0.01      0.01      0.01      0.01         0.01
  YS02001929YS02001926        0.01      0.01      0.01      0.01         0.01
  YS02006553YS02006556        0.50      0.50      0.60      0.01         0.01
  YS02006556YS02006558        0.54      0.54      0.61      0.01         0.01
  YS02006558YS02006561        0.29      0.49      0.29      0.67         0.29
  YS02006561YS02001783        0.23      0.23      0.39      0.01         0.01
  YS02163301YS02001633        0.67      0.67      0.71      0.01         0.01
  YS02163601YS02164001        0.64      0.64      0.72      0.06         0.01
  YS02164001YS02001641        0.64      0.64      0.64      0.60         0.51
  
  
  ***************
  Pumping Summary
  ***************
  
  ---------------------------------------------------------------------------------------------------------
                                                  Min       Avg       Max     Total     Power    % Time Off
                        Percent   Number of      Flow      Flow      Flow    Volume     Usage    Pump Curve
  Pump                 Utilized   Start-Ups       LPS       LPS       LPS  10^6 ltr     Kw-hr    Low   High
  ---------------------------------------------------------------------------------------------------------
  CC-R1                   13.14           2      0.00    683.00    683.00     2.584     48.42    0.0    7.9
  CC-R2                   12.13           2      0.00    683.00    683.00     2.386     44.75    0.0    8.6
  CC-S1                   38.25           6      0.00    200.00    200.00     2.203     12.90    0.0    0.0
  CC-S2                   20.54           2      0.00    200.00    200.00     1.183      6.76    0.0    0.0
  JK-R1                    7.35          12      0.00   1000.00   1000.00     2.117     24.40    0.0    0.0
  JK-R2                    0.16           1      0.00   1000.00   1000.00     0.047      0.36    0.0    0.0
  JK-S                    12.09          17      0.00    300.00    300.00     1.044     14.31    0.0    0.0
  

  Analysis begun on:  Mon Feb 24 09:53:43 2025
  Analysis ended on:  Mon Feb 24 09:53:45 2025
  Total elapsed time: 00:00:02