
  EPA STORM WATER MANAGEMENT MODEL - VERSION 5.2 (Build 5.2.4)
  PYSWMM TOOLKIT API - VERSION v1.0 (2023-11-27)
  ------------------------------------------------------------

  WARNING 04: minimum elevation drop used for Conduit WS02004404WS02004405
  WARNING 03: negative offset ignored for Link YS02001904YS02001907
  
  ****************
  Analysis Options
  ****************
  Flow Units ............... LPS
  Process Models:
    Rainfall/Runoff ........ YES
    RDII ................... NO
    Snowmelt ............... NO
    Groundwater ............ NO
    Flow Routing ........... YES
    Ponding Allowed ........ NO
    Water Quality .......... NO
  Infiltration Method ...... HORTON
  Flow Routing Method ...... DYNWAVE
  Surcharge Method ......... EXTRAN
  Starting Date ............ 08/28/2015 08:00:00
  Ending Date .............. 08/28/2015 16:00:00
  Antecedent Dry Days ...... 8.0
  Report Time Step ......... 00:01:00
  Wet Time Step ............ 00:01:00
  Dry Time Step ............ 00:01:00
  Routing Time Step ........ 30.00 sec
  Variable Time Step ....... YES
  Maximum Trials ........... 8
  Number of Threads ........ 4
  Head Tolerance ........... 0.001500 m
  
  
  **************************        Volume         Depth
  Runoff Quantity Continuity     hectare-m            mm
  **************************     ---------       -------
  Total Precipitation ......         1.966        59.279
  Evaporation Loss .........         0.000         0.000
  Infiltration Loss ........         0.101         3.059
  Surface Runoff ...........         1.832        55.236
  Final Storage ............         0.033         0.996
  Continuity Error (%) .....        -0.020
  
  
  **************************        Volume        Volume
  Flow Routing Continuity        hectare-m      10^6 ltr
  **************************     ---------     ---------
  Dry Weather Inflow .......         0.025         0.251
  Wet Weather Inflow .......         1.832        18.320
  Groundwater Inflow .......         0.000         0.000
  RDII Inflow ..............         0.000         0.000
  External Inflow ..........         0.083         0.834
  External Outflow .........         1.400        13.998
  Flooding Loss ............         0.511         5.114
  Evaporation Loss .........         0.000         0.000
  Exfiltration Loss ........         0.000         0.000
  Initial Stored Volume ....         0.243         2.431
  Final Stored Volume ......         0.275         2.746
  Continuity Error (%) .....        -0.103
  
  
  *************************
  Highest Continuity Errors
  *************************
  Node YS02001884 (5.11%)
  Node YS02001583 (-4.58%)
  
  
  ***************************
  Time-Step Critical Elements
  ***************************
  Link WS02006252WS02006251 (49.23%)
  Link WS02004404WS02004405 (11.69%)
  Link WS02006238WS02006235 (10.80%)
  Link WS02006235WS02006234 (8.11%)
  Link YS02001791YS02001793 (7.27%)
  
  
  ********************************
  Highest Flow Instability Indexes
  ********************************
  Link WS02006113WS02006111 (44)
  Link WS02006111WS02006112 (24)
  Link WS02006256WS02006235 (13)
  Link WS02006238WS02006235 (13)
  Link WS02006252WS02006251 (12)
  
  
  *********************************
  Most Frequent Nonconverging Nodes
  *********************************
  Node CC-1 (10.86%)
  Node CC-2 (10.86%)
  Node JK-1 (10.86%)
  Node JK-2 (10.86%)
  Node WSC (10.86%)
  
  
  *************************
  Routing Time Step Summary
  *************************
  Minimum Time Step           :     0.01 sec
  Average Time Step           :     1.99 sec
  Maximum Time Step           :     7.04 sec
  % of Time in Steady State   :     0.00
  Average Iterations per Step :     2.89
  % of Steps Not Converging   :    10.86
  Time Step Frequencies       :
     30.000 - 13.228 sec      :     0.00 %
     13.228 -  5.833 sec      :     8.29 %
      5.833 -  2.572 sec      :    22.00 %
      2.572 -  1.134 sec      :    15.08 %
      1.134 -  0.500 sec      :    54.63 %
  
  
  ***************************
  Subcatchment Runoff Summary
  ***************************
  
  ------------------------------------------------------------------------------------------------------------------------------
                            Total      Total      Total      Total     Imperv       Perv      Total       Total     Peak  Runoff
                           Precip      Runon       Evap      Infil     Runoff     Runoff     Runoff      Runoff   Runoff   Coeff
  Subcatchment                 mm         mm         mm         mm         mm         mm         mm    10^6 ltr      LPS
  ------------------------------------------------------------------------------------------------------------------------------
  sub60                     59.28       0.00       0.00       1.82      50.96       5.30      56.26        0.74   510.21   0.949
  sub61                     59.28       0.00       0.00       2.64      48.07       7.44      55.51        1.02   709.55   0.936
  sub62                     59.28       0.00       0.00       1.21      53.25       3.53      56.78        1.56   997.70   0.958
  sub63                     59.28       0.00       0.00       4.92      41.12      12.28      53.39        1.21   807.96   0.901
  sub64                     59.28       0.00       0.00       2.48      49.18       6.41      55.59        1.34   817.06   0.938
  sub65                     59.28       0.00       0.00       2.15      50.32       5.56      55.88        1.54   911.82   0.943
  sub66                     59.28       0.00       0.00       6.11      41.01      11.08      52.09        2.43  1224.31   0.879
  sub67                     59.28       0.00       0.00       1.16      53.29       3.58      56.88        1.06   761.37   0.959
  sub68                     59.28       0.00       0.00       2.19      49.79       6.11      55.90        1.54  1024.81   0.943
  sub69                     59.28       0.00       0.00       1.98      50.27       6.92      57.19        2.12  1210.70   0.965
  sub70                     59.28       0.00       0.00       6.60      38.96      13.55      52.51        1.52   687.14   0.886
  sub71                     59.28       0.00       0.00       1.25      53.21       3.50      56.70        1.48   880.61   0.957
  sub72                     59.28       0.00       0.00       1.11      53.72       3.04      56.76        0.78   430.02   0.958
  
  
  ******************
  Node Depth Summary
  ******************
  
  ---------------------------------------------------------------------------------
                                 Average  Maximum  Maximum  Time of Max    Reported
                                   Depth    Depth      HGL   Occurrence   Max Depth
  Node                 Type       Meters   Meters   Meters  days hr:min      Meters
  ---------------------------------------------------------------------------------
  WS02003060           JUNCTION     0.23     0.38     5.31     0  02:28        0.38
  WS02003066           JUNCTION     0.19     0.30     5.85     0  02:28        0.30
  WS02003067           JUNCTION     0.49     0.70     6.02     0  02:28        0.70
  WS02003069           JUNCTION     0.25     0.43     5.01     0  02:29        0.43
  WS02003072           JUNCTION     0.31     0.50     4.87     0  02:29        0.50
  WS02003073           JUNCTION     0.18     0.30     4.36     0  02:30        0.30
  WS02004401           JUNCTION     0.57     0.85     6.85     0  02:25        0.85
  WS02004402           JUNCTION     0.60     0.87     6.83     0  02:25        0.87
  WS02004403           JUNCTION     0.63     0.89     6.82     0  02:25        0.89
  WS02004404           JUNCTION     0.70     0.96     6.81     0  02:25        0.96
  WS02004405           JUNCTION     0.70     0.95     6.80     0  02:25        0.95
  WS02004406           JUNCTION     0.72     0.95     6.78     0  02:26        0.95
  WS02004407           JUNCTION     0.17     0.29     6.61     0  02:26        0.29
  WS02004409           JUNCTION     0.38     0.66     6.43     0  02:37        0.66
  WS02004410           JUNCTION     0.40     0.68     6.40     0  02:27        0.68
  WS02004411           JUNCTION     0.42     0.69     6.37     0  02:27        0.68
  WS02004412           JUNCTION     0.44     0.69     6.33     0  02:27        0.69
  WS02004413           JUNCTION     0.61     0.85     6.32     0  02:28        0.85
  WS02006109           JUNCTION     0.63     1.20     7.81     0  02:10        1.12
  WS02006110           JUNCTION     0.64     1.24     7.82     0  02:10        1.12
  WS02006111           JUNCTION     0.17     0.29     6.99     0  02:32        0.29
  WS02006112           JUNCTION     0.73     1.06     6.95     0  02:19        1.05
  WS02006113           JUNCTION     0.26     0.46     7.35     0  02:56        0.45
  WS02006115           JUNCTION     0.46     0.75     6.89     0  02:24        0.75
  WS02006116           JUNCTION     0.54     0.83     6.87     0  02:25        0.83
  WS02006228           JUNCTION     0.62     1.30     7.95     0  02:31        1.13
  WS02006229           JUNCTION     0.59     1.35     8.05     0  02:31        1.13
  WS02006230           JUNCTION     0.59     1.55     8.29     0  02:31        1.16
  WS02006231           JUNCTION     0.40     1.60     8.72     0  02:20        0.89
  WS02006232           JUNCTION     0.53     1.73     8.77     0  02:31        1.73
  WS02006234           JUNCTION     0.45     1.96     9.12     0  02:31        1.96
  WS02006235           JUNCTION     0.48     1.97     9.13     0  02:54        1.88
  WS02006238           JUNCTION     0.51     2.04     9.18     0  02:54        1.88
  WS02006239           JUNCTION     0.48     1.97     9.18     0  02:54        1.73
  WS02006240           JUNCTION     0.44     1.80     9.10     0  02:54        1.59
  WS02006242           JUNCTION     0.51     1.55     8.82     0  02:20        1.55
  WS02006243           JUNCTION     0.42     1.42     8.84     0  02:54        1.40
  WS02006245           JUNCTION     0.43     1.34     8.82     0  02:54        1.30
  WS02006247           JUNCTION     0.45     1.28     8.78     0  02:54        1.25
  WS02006248           JUNCTION     0.42     1.10     8.69     0  02:10        1.10
  WS02006249           JUNCTION     0.45     1.09     8.69     0  02:10        1.09
  WS02006251           JUNCTION     0.45     1.35     9.02     0  02:54        1.13
  WS02006252           JUNCTION     0.34     1.50     9.74     0  00:00        0.78
  WS02006256           JUNCTION     0.96     2.35     9.28     0  00:00        2.35
  WSF200               JUNCTION     0.16     0.29     5.52     0  02:28        0.29
  YS02001580           JUNCTION     0.07     1.05     9.59     0  02:13        0.77
  YS02001583           JUNCTION     0.10     1.02     9.51     0  02:13        0.82
  YS02001586           JUNCTION     0.17     1.13     9.30     0  02:13        1.13
  YS02001590           JUNCTION     0.27     1.40     9.26     0  02:13        1.40
  YS02001593           JUNCTION     0.20     1.34     9.20     0  02:13        1.28
  YS02001596           JUNCTION     0.27     1.68     9.10     0  02:13        1.66
  YS02001600           JUNCTION     0.34     1.87     9.00     0  02:13        1.86
  YS02001601           JUNCTION     0.53     2.06     8.90     0  02:12        2.06
  YS02001602           JUNCTION     0.45     1.87     8.77     0  02:15        1.87
  YS02001605           JUNCTION     0.42     1.78     8.68     0  02:21        1.78
  YS02001607           JUNCTION     0.42     1.65     8.49     0  02:19        1.65
  YS02001610           JUNCTION     0.46     1.68     8.48     0  02:16        1.68
  YS02001613           JUNCTION     0.42     1.67     8.51     0  02:42        1.67
  YS02001616           JUNCTION     0.35     1.61     8.52     0  02:42        1.59
  YS02001619           JUNCTION     0.32     1.61     8.54     0  02:21        1.61
  YS02001622           JUNCTION     0.31     1.58     8.48     0  02:42        1.56
  YS02001625           JUNCTION     0.58     1.78     8.38     0  02:15        1.78
  YS02001629           JUNCTION     0.43     1.85     8.40     0  02:17        1.85
  YS02001633           JUNCTION     0.52     2.08     8.53     0  02:21        2.08
  YS02001641           JUNCTION     0.50     2.10     8.54     0  02:42        2.10
  YS02001644           JUNCTION     0.50     1.92     8.35     0  02:18        1.92
  YS02001647           JUNCTION     0.29     1.90     8.51     0  02:42        1.90
  YS02001649           JUNCTION     0.33     2.05     8.44     0  02:42        2.05
  YS02001652           JUNCTION     0.22     1.86     8.46     0  02:23        1.78
  YS02001655           JUNCTION     0.17     1.67     8.52     0  02:23        1.58
  YS02001658           JUNCTION     0.12     1.51     8.65     0  02:18        1.31
  YS02001661           JUNCTION     0.15     1.32     8.72     0  02:23        1.09
  YS02001664           JUNCTION     0.05     0.52     8.44     0  02:24        0.51
  YS02001745           JUNCTION     0.07     0.81     8.33     0  02:24        0.81
  YS02001748           JUNCTION     0.12     1.79     8.87     0  02:20        1.79
  YS02001751           JUNCTION     0.14     1.78     8.66     0  02:21        1.78
  YS02001754           JUNCTION     0.19     2.09     8.70     0  02:21        2.09
  YS02001757           JUNCTION     0.35     2.21     8.47     0  02:21        2.21
  YS02001759           JUNCTION     0.29     2.15     8.52     0  02:21        2.15
  YS02001762           JUNCTION     0.28     2.12     8.52     0  02:21        2.12
  YS02001765           JUNCTION     0.26     2.07     8.52     0  02:33        2.07
  YS02001767           JUNCTION     0.25     2.03     8.52     0  02:33        2.03
  YS02001770           JUNCTION     0.27     1.95     8.44     0  02:16        1.95
  YS02001774           JUNCTION     0.33     2.05     8.47     0  02:33        2.05
  YS02001779           JUNCTION     0.17     1.68     8.37     0  02:16        1.68
  YS02001783           JUNCTION     0.23     1.26     7.40     0  02:18        1.23
  YS02001784           JUNCTION     0.24     1.13     7.20     0  02:18        1.12
  YS02001786           JUNCTION     0.21     0.89     6.92     0  02:18        0.87
  YS02001788           JUNCTION     0.15     0.62     6.60     0  02:23        0.62
  YS02001790           JUNCTION     0.18     0.72     6.37     0  02:23        0.70
  YS02001791           JUNCTION     0.11     0.44     5.91     0  02:23        0.42
  YS02001793           JUNCTION     0.06     0.30     5.13     0  02:30        0.29
  YS02001882           JUNCTION     0.29     1.83     8.55     0  02:33        1.83
  YS02001884           JUNCTION     0.38     1.90     8.52     0  02:33        1.90
  YS02001887           JUNCTION     0.46     1.86     8.40     0  02:21        1.86
  YS02001890           JUNCTION     0.49     1.81     8.32     0  02:18        1.81
  YS02001895           JUNCTION     0.26     1.58     8.32     0  02:34        1.58
  YS02001898           JUNCTION     0.27     1.65     8.39     0  02:33        1.65
  YS02001901           JUNCTION     0.38     1.70     8.31     0  02:31        1.70
  YS02001904           JUNCTION     0.36     1.74     8.37     0  02:33        1.74
  YS02001907           JUNCTION     0.69     1.96     8.25     0  02:18        1.96
  YS02001910           JUNCTION     0.48     2.04     8.54     0  02:19        1.87
  YS02001915           JUNCTION     0.29     2.00     8.72     0  02:19        1.75
  YS02001918           JUNCTION     0.15     1.81     8.88     0  02:19        1.43
  YS02001920           JUNCTION     0.23     2.14     9.15     0  02:19        1.51
  YS02001923           JUNCTION     0.11     2.03     9.29     0  02:19        1.27
  YS02001926           JUNCTION     0.15     1.90     9.35     0  02:19        1.08
  YS02001929           JUNCTION     0.08     1.78     9.47     0  02:19        0.84
  YS02006553           JUNCTION     0.69     1.98     8.27     0  02:23        1.97
  YS02006556           JUNCTION     0.66     1.96     8.27     0  02:23        1.95
  YS02006558           JUNCTION     0.71     2.01     8.28     0  02:21        2.01
  YS02006561           JUNCTION     0.14     0.94     7.60     0  02:18        0.89
  YS02163301           JUNCTION     0.46     1.96     8.48     0  02:21        1.96
  YS02163601           JUNCTION     0.56     2.08     8.48     0  02:42        2.08
  YS02164001           JUNCTION     0.49     2.10     8.56     0  02:42        2.10
  CC-1                 OUTFALL      0.00     0.00     0.00     0  00:00        0.00
  CC-2                 OUTFALL      0.00     0.00     0.00     0  00:00        0.00
  JK-1                 OUTFALL      0.00     0.00     0.00     0  00:00        0.00
  JK-2                 OUTFALL      0.00     0.00     0.00     0  00:00        0.00
  WSC                  OUTFALL      0.18     0.30     0.97     0  02:30        0.30
  CC-storage           STORAGE      0.97     1.77     7.27     0  02:45        1.77
  JK-storage           STORAGE      3.10     4.23     5.03     0  02:30        4.21
  
  
  *******************
  Node Inflow Summary
  *******************
  
  -------------------------------------------------------------------------------------------------
                                  Maximum  Maximum                  Lateral       Total        Flow
                                  Lateral    Total  Time of Max      Inflow      Inflow     Balance
                                   Inflow   Inflow   Occurrence      Volume      Volume       Error
  Node                 Type           LPS      LPS  days hr:min    10^6 ltr    10^6 ltr     Percent
  -------------------------------------------------------------------------------------------------
  WS02003060           JUNCTION     16.53   546.10     0  02:28       0.476        5.12       0.045
  WS02003066           JUNCTION      0.00   529.10     0  02:28           0        4.64       0.029
  WS02003067           JUNCTION      0.00   528.94     0  02:28           0        4.65       0.090
  WS02003069           JUNCTION      0.32   546.26     0  02:29     0.00922        5.13       0.079
  WS02003072           JUNCTION      0.00   545.57     0  02:29           0        5.12       0.140
  WS02003073           JUNCTION      1.82   546.99     0  02:30      0.0524        5.17       0.114
  WS02004401           JUNCTION      0.00   536.31     0  02:33           0        4.75       0.213
  WS02004402           JUNCTION      0.00   535.47     0  02:25           0        4.74       0.217
  WS02004403           JUNCTION      0.00   535.04     0  02:25           0        4.73       0.212
  WS02004404           JUNCTION      0.16   534.23     0  02:25     0.00467        4.72       0.177
  WS02004405           JUNCTION      0.04   534.64     0  02:25      0.0011        4.72       0.264
  WS02004406           JUNCTION      0.00   534.79     0  02:25           0         4.7       0.438
  WS02004407           JUNCTION      0.00   534.18     0  02:26           0        4.68       0.023
  WS02004409           JUNCTION      0.00   533.83     0  02:26           0        4.68       0.056
  WS02004410           JUNCTION      0.00   532.10     0  02:26           0        4.68       0.093
  WS02004411           JUNCTION      0.00   531.01     0  02:27           0        4.68       0.119
  WS02004412           JUNCTION      0.00   530.10     0  02:27           0        4.67       0.160
  WS02004413           JUNCTION      0.00   529.31     0  02:27           0        4.66       0.284
  WS02006109           JUNCTION      1.23   588.54     0  02:31      0.0354         4.8       0.187
  WS02006110           JUNCTION      0.00   592.18     0  02:31           0        4.79       0.135
  WS02006111           JUNCTION      0.00   561.40     0  02:56           0        4.78       0.014
  WS02006112           JUNCTION      0.00   542.34     0  02:56           0        4.78       0.365
  WS02006113           JUNCTION      0.00   575.47     0  02:31           0        4.78       0.036
  WS02006115           JUNCTION      0.00   554.92     0  02:20           0        4.76       0.135
  WS02006116           JUNCTION      0.00   540.14     0  02:22           0        4.75       0.103
  WS02006228           JUNCTION      0.00   579.30     0  02:31           0        4.76       0.063
  WS02006229           JUNCTION      0.00   575.49     0  02:31           0        4.77       0.119
  WS02006230           JUNCTION     10.28   588.28     0  02:30       0.296        4.77       0.092
  WS02006231           JUNCTION      0.00   577.52     0  02:40           0        4.47      -0.108
  WS02006232           JUNCTION      0.00   575.55     0  02:40           0        4.48       0.274
  WS02006234           JUNCTION      0.00   569.79     0  02:40           0        4.47      -0.253
  WS02006235           JUNCTION      0.00   564.91     0  03:15           0        4.54       0.240
  WS02006238           JUNCTION      0.00   423.94     0  03:00           0        3.81      -0.143
  WS02006239           JUNCTION      0.00   422.62     0  03:00           0        3.77      -0.065
  WS02006240           JUNCTION      0.00   419.57     0  02:15           0        3.74      -0.053
  WS02006242           JUNCTION      0.00   419.16     0  02:15           0        3.72      -0.041
  WS02006243           JUNCTION      0.00   418.76     0  02:15           0        3.72       0.135
  WS02006245           JUNCTION      0.00   418.81     0  02:45           0        3.73       0.312
  WS02006247           JUNCTION      0.00   418.65     0  03:00           0        3.73       0.030
  WS02006248           JUNCTION      0.00   419.09     0  03:00           0        3.73       0.074
  WS02006249           JUNCTION      0.00   459.02     0  00:00           0        3.88       0.271
  WS02006251           JUNCTION      0.08   404.94     0  02:54     0.00222        3.88      -0.033
  WS02006252           JUNCTION      0.00   400.00     0  00:00           0        3.88      -0.022
  WS02006256           JUNCTION      0.00   300.00     0  00:00           0        1.07      -0.873
  WSF200               JUNCTION      0.00   529.18     0  02:28           0        4.64       0.009
  YS02001580           JUNCTION      0.00    74.38     0  02:13           0     0.00414       2.348
  YS02001583           JUNCTION      0.00   126.77     0  02:12           0      0.0153      -4.382
  YS02001586           JUNCTION    687.14   687.17     0  02:26        1.52        1.53       0.065
  YS02001590           JUNCTION      0.00   320.36     0  02:33           0        1.26      -0.020
  YS02001593           JUNCTION      0.00   319.81     0  02:33           0        1.26       0.008
  YS02001596           JUNCTION      0.00   318.28     0  02:33           0        1.26      -0.012
  YS02001600           JUNCTION      0.00   318.31     0  02:33           0        1.26       0.013
  YS02001601           JUNCTION   1210.70  1528.45     0  02:25        2.12        3.37       0.025
  YS02001602           JUNCTION      0.00   492.07     0  02:12           0        2.21       0.020
  YS02001605           JUNCTION      0.00   492.00     0  02:12           0        2.11       0.025
  YS02001607           JUNCTION      0.00   491.88     0  02:12           0        2.11       0.096
  YS02001610           JUNCTION      0.00   649.82     0  02:26           0        2.24       0.104
  YS02001613           JUNCTION      0.00   493.61     0  02:12           0        1.85       0.089
  YS02001616           JUNCTION      0.00   494.63     0  02:11           0        1.85       0.031
  YS02001619           JUNCTION   1224.31  1224.31     0  02:26        2.43        4.13       0.000
  YS02001622           JUNCTION      0.00   927.83     0  02:25           0        3.99      -0.002
  YS02001625           JUNCTION      0.00  1296.07     0  02:25           0        4.17       0.231
  YS02001629           JUNCTION      0.00   892.83     0  02:15           0        3.26       0.008
  YS02001633           JUNCTION    912.02  1254.69     0  02:16        1.54        4.63       0.073
  YS02001641           JUNCTION      0.00  1259.51     0  02:15           0        4.45       0.063
  YS02001644           JUNCTION    817.10  1594.18     0  02:15        1.34        5.78       0.058
  YS02001647           JUNCTION      0.00  1597.34     0  02:15           0        5.44       0.005
  YS02001649           JUNCTION      0.00  1765.12     0  02:17           0        6.65       0.002
  YS02001652           JUNCTION      0.00   828.43     0  02:25           0        1.22      -0.052
  YS02001655           JUNCTION      0.15   828.42     0  02:25     0.00443        1.22      -0.055
  YS02001658           JUNCTION      0.00   828.46     0  02:25           0        1.22      -0.034
  YS02001661           JUNCTION      0.00   864.92     0  02:23           0        1.22       0.010
  YS02001664           JUNCTION    807.96   807.96     0  02:25        1.21        1.21      -0.007
  YS02001745           JUNCTION    510.21   510.21     0  02:25       0.739        0.74       0.168
  YS02001748           JUNCTION      0.04   532.49     0  02:19      0.0013        0.74      -0.321
  YS02001751           JUNCTION      0.01   513.29     0  02:25    0.000317       0.747       0.105
  YS02001754           JUNCTION      0.26   514.38     0  02:25     0.00749       0.762      -0.172
  YS02001757           JUNCTION      0.00  2991.23     0  02:23           0        9.86       0.002
  YS02001759           JUNCTION    709.59  1238.02     0  02:23        1.02        2.45      -0.014
  YS02001762           JUNCTION      0.00   670.46     0  02:21           0        1.43      -0.012
  YS02001765           JUNCTION      0.00   670.43     0  02:21           0        1.43      -0.013
  YS02001767           JUNCTION      0.54   670.62     0  02:21      0.0154        1.43      -0.002
  YS02001770           JUNCTION    997.86   997.86     0  02:25        1.56        1.61      -0.030
  YS02001774           JUNCTION      0.00   486.23     0  02:25           0        0.21       0.454
  YS02001779           JUNCTION      0.01   486.75     0  02:25    0.000144       0.164      -0.418
  YS02001783           JUNCTION      0.00  1163.19     0  02:24           0        3.88       0.006
  YS02001784           JUNCTION      1.06  1164.43     0  02:24      0.0305        3.91       0.015
  YS02001786           JUNCTION      0.06  1164.51     0  02:24     0.00162        3.91       0.018
  YS02001788           JUNCTION      0.07  1164.33     0  02:24     0.00204        3.91       0.007
  YS02001790           JUNCTION      0.15  1180.32     0  02:24     0.00446        3.91       0.027
  YS02001791           JUNCTION      0.00  1285.04     0  02:23           0        3.91      -0.025
  YS02001793           JUNCTION      0.00  1249.63     0  02:23           0        3.91       0.004
  YS02001882           JUNCTION      0.00    31.23     0  02:16           0      0.0126       4.275
  YS02001884           JUNCTION      0.00    42.01     0  02:15           0      0.0486       5.386
  YS02001887           JUNCTION    761.82   762.35     0  02:25        1.07         1.1       0.398
  YS02001890           JUNCTION      0.00   761.44     0  02:25           0        1.06       0.485
  YS02001895           JUNCTION      0.00   517.46     0  02:26           0       0.999       0.147
  YS02001898           JUNCTION      0.00   518.05     0  02:26           0       0.997       0.030
  YS02001901           JUNCTION      0.00   518.03     0  02:26           0           1       0.336
  YS02001904           JUNCTION      0.00   517.81     0  02:26           0           1       0.280
  YS02001907           JUNCTION      0.00  1847.58     0  02:25           0        3.34       0.546
  YS02001910           JUNCTION      0.00  1330.79     0  02:25           0        2.35       0.310
  YS02001915           JUNCTION    880.63  1330.97     0  02:25        1.48        2.38       0.064
  YS02001918           JUNCTION      0.00   452.66     0  02:20           0       0.911      -0.002
  YS02001920           JUNCTION      2.87   452.08     0  02:25      0.0827       0.898       0.101
  YS02001923           JUNCTION      0.04   448.69     0  02:25     0.00109       0.803      -0.020
  YS02001926           JUNCTION      0.05   448.77     0  02:25      0.0015       0.788       0.013
  YS02001929           JUNCTION    430.02   430.02     0  02:26        0.78       0.781      -0.087
  YS02006553           JUNCTION      0.00   801.03     0  02:38           0        2.36       0.512
  YS02006556           JUNCTION      0.00   801.83     0  02:38           0        2.37       0.353
  YS02006558           JUNCTION   1025.69  1163.67     0  02:24        1.56        3.91       0.092
  YS02006561           JUNCTION      0.00  1163.35     0  02:24           0        3.88      -0.002
  YS02163301           JUNCTION      0.00   894.86     0  02:15           0        3.27       0.048
  YS02163601           JUNCTION      0.11  1255.68     0  02:15     0.00317        4.45       0.109
  YS02164001           JUNCTION      0.00  1256.80     0  02:15           0        4.44       0.051
  CC-1                 OUTFALL       0.00   683.00     0  00:00           0        3.16       0.000
  CC-2                 OUTFALL       0.00   683.00     0  00:00           0        2.85       0.000
  JK-1                 OUTFALL       0.00  1000.00     0  00:00           0        2.29       0.000
  JK-2                 OUTFALL       0.00  1000.00     0  00:00           0       0.531       0.000
  WSC                  OUTFALL       0.00   546.18     0  02:30           0        5.16       0.000
  CC-storage           STORAGE       0.00  2991.23     0  02:23           0        12.1      -0.050
  JK-storage           STORAGE       0.00  1271.65     0  02:35           0        4.06       0.069
  
  
  **********************
  Node Surcharge Summary
  **********************
  
  Surcharging occurs when water rises above the top of the highest conduit.
  ---------------------------------------------------------------------
                                               Max. Height   Min. Depth
                                   Hours       Above Crown    Below Rim
  Node                 Type      Surcharged         Meters       Meters
  ---------------------------------------------------------------------
  WS02006109           JUNCTION        1.90          0.376        1.444
  WS02006110           JUNCTION        0.43          0.326        1.524
  WS02006112           JUNCTION        0.50          0.065        1.615
  WS02006228           JUNCTION        1.89          0.470        1.730
  WS02006229           JUNCTION        1.93          0.554        1.896
  WS02006230           JUNCTION        0.45          0.469        1.101
  WS02006231           JUNCTION        0.58          0.892        0.638
  WS02006232           JUNCTION        1.99          1.027        0.453
  WS02006234           JUNCTION        0.87          1.240        0.000
  WS02006235           JUNCTION        1.89          1.258        0.032
  WS02006238           JUNCTION        1.95          1.318        0.112
  WS02006239           JUNCTION        1.86          1.234        0.056
  WS02006240           JUNCTION        1.88          1.092        0.298
  WS02006242           JUNCTION        1.93          0.820        0.000
  WS02006243           JUNCTION        1.89          0.712        0.058
  WS02006245           JUNCTION        1.90          0.629        0.221
  WS02006247           JUNCTION        1.91          0.573        0.187
  WS02006248           JUNCTION        1.89          0.380        0.000
  WS02006249           JUNCTION        1.90          0.390        0.000
  WS02006251           JUNCTION        0.64          0.324        0.856
  WS02006252           JUNCTION        2.02          1.100        0.000
  WS02006256           JUNCTION        5.44          2.050        0.000
  YS02001580           JUNCTION        0.55          0.450        0.000
  YS02001583           JUNCTION        0.55          0.378        0.122
  YS02001586           JUNCTION        0.68          0.510        0.000
  YS02001590           JUNCTION        0.76          0.750        0.000
  YS02001593           JUNCTION        0.76          0.717        0.123
  YS02001596           JUNCTION        0.89          0.953        0.117
  YS02001600           JUNCTION        1.04          1.190        0.000
  YS02001601           JUNCTION        1.38          1.440        0.000
  YS02001602           JUNCTION        1.27          1.270        0.000
  YS02001605           JUNCTION        1.22          1.180        0.000
  YS02001607           JUNCTION        0.75          0.646        0.034
  YS02001610           JUNCTION        0.78          0.680        0.000
  YS02001613           JUNCTION        0.75          0.669        0.031
  YS02001616           JUNCTION        0.71          0.610        0.000
  YS02001619           JUNCTION        0.69          0.610        0.000
  YS02001622           JUNCTION        0.69          0.580        0.040
  YS02001625           JUNCTION        0.88          0.780        0.000
  YS02001629           JUNCTION        0.65          0.470        0.000
  YS02001633           JUNCTION        0.91          1.060        0.000
  YS02001641           JUNCTION        0.85          1.100        0.000
  YS02001644           JUNCTION        0.82          0.920        0.000
  YS02001647           JUNCTION        0.62          0.900        0.000
  YS02001649           JUNCTION        0.75          1.050        0.000
  YS02001652           JUNCTION        0.56          0.833        0.297
  YS02001655           JUNCTION        0.42          0.674        0.526
  YS02001658           JUNCTION        0.23          0.505        0.795
  YS02001661           JUNCTION        0.02          0.247        1.143
  YS02001748           JUNCTION        0.17          0.713        0.477
  YS02001751           JUNCTION        0.32          0.781        0.419
  YS02001754           JUNCTION        0.48          1.041        0.109
  YS02001757           JUNCTION        0.82          1.210        0.000
  YS02001759           JUNCTION        0.73          1.151        0.059
  YS02001762           JUNCTION        0.70          1.119        0.031
  YS02001765           JUNCTION        0.66          1.072        0.028
  YS02001767           JUNCTION        0.62          1.030        0.000
  YS02001770           JUNCTION        0.59          0.920        0.000
  YS02001774           JUNCTION        0.67          1.050        0.000
  YS02001779           JUNCTION        0.47          0.680        0.000
  YS02001783           JUNCTION        0.49          0.462        1.138
  YS02001784           JUNCTION        0.47          0.330        1.160
  YS02001786           JUNCTION        0.36          0.087        1.343
  YS02001882           JUNCTION        0.44          0.830        0.000
  YS02001884           JUNCTION        0.44          0.841        0.029
  YS02001887           JUNCTION        0.48          0.814        0.136
  YS02001890           JUNCTION        0.50          0.760        0.000
  YS02001895           JUNCTION        0.42          0.577        0.173
  YS02001898           JUNCTION        0.41          0.624        0.116
  YS02001901           JUNCTION        0.47          0.696        0.174
  YS02001904           JUNCTION        0.46          0.735        0.115
  YS02001907           JUNCTION        0.74          0.950        0.000
  YS02001910           JUNCTION        0.52          1.036        0.064
  YS02001915           JUNCTION        0.43          1.000        0.000
  YS02001918           JUNCTION        0.35          0.810        0.000
  YS02001920           JUNCTION        0.36          1.140        0.000
  YS02001923           JUNCTION        0.05          0.820        0.000
  YS02001926           JUNCTION        0.11          0.900        0.000
  YS02001929           JUNCTION        0.01          0.780        0.000
  YS02006553           JUNCTION        0.76          0.981        0.209
  YS02006556           JUNCTION        0.62          0.918        0.432
  YS02006558           JUNCTION        0.61          0.912        0.488
  YS02006561           JUNCTION        0.31          0.142        1.008
  YS02163301           JUNCTION        0.89          0.963        0.067
  YS02163601           JUNCTION        0.94          1.080        0.000
  YS02164001           JUNCTION        0.85          1.100        0.000
  
  
  *********************
  Node Flooding Summary
  *********************
  
  Flooding refers to all water that overflows a node, whether it ponds or not.
  --------------------------------------------------------------------------
                                                             Total   Maximum
                                 Maximum   Time of Max       Flood    Ponded
                        Hours       Rate    Occurrence      Volume     Depth
  Node                 Flooded       LPS   days hr:min    10^6 ltr    Meters
  --------------------------------------------------------------------------
  WS02006234              0.01      3.74      0  02:31       0.000     0.000
  WS02006242              0.01     19.99      0  02:54       0.000     0.000
  WS02006248              0.01     22.90      0  02:20       0.000     0.000
  WS02006249              0.61     92.25      0  02:31       0.143     0.000
  WS02006252              0.01    245.63      0  00:00       0.000     0.000
  WS02006256              0.99    293.19      0  00:00       0.315     0.000
  YS02001580              0.01     39.70      0  02:13       0.000     0.000
  YS02001586              0.42    369.70      0  02:26       0.261     0.000
  YS02001590              0.01      8.46      0  02:13       0.000     0.000
  YS02001600              0.01      2.57      0  02:13       0.000     0.000
  YS02001601              0.62   1130.59      0  02:25       1.158     0.000
  YS02001602              0.52     62.20      0  02:33       0.106     0.000
  YS02001605              0.01      0.29      0  02:31       0.000     0.000
  YS02001610              0.46    649.50      0  02:26       0.535     0.000
  YS02001616              0.01      6.90      0  02:42       0.000     0.000
  YS02001619              0.01      0.37      0  02:21       0.000     0.000
  YS02001625              0.44   1295.93      0  02:25       1.080     0.000
  YS02001629              0.06     16.48      0  02:19       0.001     0.000
  YS02001641              0.01      4.86      0  02:42       0.000     0.000
  YS02001644              0.20    938.10      0  02:25       0.333     0.000
  YS02001647              0.01      3.74      0  02:42       0.000     0.000
  YS02001649              0.01      2.62      0  02:42       0.000     0.000
  YS02001757              0.01      6.18      0  02:21       0.000     0.000
  YS02001767              0.01      0.52      0  02:33       0.000     0.000
  YS02001770              0.01     31.07      0  02:16       0.000     0.000
  YS02001774              0.01      1.18      0  02:33       0.000     0.000
  YS02001779              0.16    486.54      0  02:25       0.145     0.000
  YS02001882              0.01      0.95      0  02:33       0.000     0.000
  YS02001890              0.15    246.30      0  02:25       0.060     0.000
  YS02001907              0.30   1693.50      0  02:25       0.975     0.000
  YS02001915              0.01     11.52      0  02:19       0.000     0.000
  YS02001918              0.01     99.19      0  02:19       0.001     0.000
  YS02001920              0.01     21.34      0  02:19       0.000     0.000
  YS02001923              0.01     38.78      0  02:19       0.000     0.000
  YS02001926              0.01     41.45      0  02:19       0.000     0.000
  YS02001929              0.01    174.08      0  02:19       0.000     0.000
  YS02163601              0.01      2.11      0  02:42       0.000     0.000
  YS02164001              0.01      5.95      0  02:42       0.000     0.000
  
  
  **********************
  Storage Volume Summary
  **********************
  
  ------------------------------------------------------------------------------------------------
                         Average    Avg   Evap  Exfil     Maximum    Max    Time of Max    Maximum
                          Volume   Pcnt   Pcnt   Pcnt      Volume   Pcnt     Occurrence    Outflow
  Storage Unit           1000 m³   Full   Loss   Loss     1000 m³   Full    days hr:min        LPS
  ------------------------------------------------------------------------------------------------
  CC-storage               2.714   42.3    0.0    0.0       4.920   76.8       0  02:45    1783.53
  JK-storage               0.156   53.4    0.0    0.0       0.213   72.9       0  02:30    2300.00
  
  
  ***********************
  Outfall Loading Summary
  ***********************
  
  -----------------------------------------------------------
                         Flow       Avg       Max       Total
                         Freq      Flow      Flow      Volume
  Outfall Node           Pcnt       LPS       LPS    10^6 ltr
  -----------------------------------------------------------
  CC-1                  17.16    683.00    683.00       3.163
  CC-2                  15.22    683.00    683.00       2.848
  JK-1                   9.89   1000.00   1000.00       2.295
  JK-2                   2.26   1000.00   1000.00       0.531
  WSC                   99.96    237.57    546.18       5.161
  -----------------------------------------------------------
  System                28.90   3603.57   3892.33      13.998
  
  
  ********************
  Link Flow Summary
  ********************
  
  -----------------------------------------------------------------------------
                                 Maximum  Time of Max   Maximum    Max/    Max/
                                  |Flow|   Occurrence   |Veloc|    Full    Full
  Link                 Type          LPS  days hr:min     m/sec    Flow   Depth
  -----------------------------------------------------------------------------
  1                    CONDUIT    546.18     0  02:30      2.81    0.19    0.30
  WS02003060WS02003069 CONDUIT    545.94     0  02:29      1.64    0.21    0.34
  WS02003066WSF200     CONDUIT    529.18     0  02:28      2.84    0.09    0.22
  WS02003067WS02003066 CONDUIT    529.10     0  02:28      1.20    0.17    0.41
  WS02003069WS02003072 CONDUIT    545.57     0  02:29      1.36    0.26    0.38
  WS02003072WS02003073 CONDUIT    545.17     0  02:30      1.43    1.18    0.37
  WS02004401WS02004402 CONDUIT    535.47     0  02:25      0.98    0.64    0.86
  WS02004402WS02004403 CONDUIT    535.04     0  02:25      0.97    0.77    0.88
  WS02004403WS02004404 CONDUIT    534.07     0  02:25      0.92    0.39    0.93
  WS02004404WS02004405 CONDUIT    534.60     0  02:25      1.08    5.24    0.96
  WS02004405WS02004406 CONDUIT    534.79     0  02:25      0.99    1.05    0.95
  WS02004406WS02004407 CONDUIT    534.18     0  02:26      1.04    0.24    0.62
  WS02004407WS02004409 CONDUIT    533.83     0  02:26      1.48    0.19    0.48
  WS02004409WS02004410 CONDUIT    532.10     0  02:26      0.97    0.69    0.67
  WS02004410WS02004411 CONDUIT    531.01     0  02:27      0.93    0.73    0.68
  WS02004411WS02004412 CONDUIT    530.10     0  02:27      0.92    0.75    0.69
  WS02004412WS02004413 CONDUIT    529.31     0  02:27      0.81    0.35    0.77
  WS02004413WS02003067 CONDUIT    528.94     0  02:28      1.10    0.23    0.59
  WS02006109WS02006110 CONDUIT    592.18     0  02:31      1.18    1.14    1.00
  WS02006110WS02006113 CONDUIT    575.47     0  02:31      1.38    0.52    0.79
  WS02006111WS02006112 CONDUIT    542.34     0  02:56      1.81    0.26    0.67
  WS02006112WS02006115 CONDUIT    554.92     0  02:20      0.78    0.33    0.87
  WS02006113WS02006111 CONDUIT    561.40     0  02:56      2.47    0.67    0.46
  WS02006115WS02006116 CONDUIT    540.14     0  02:22      0.97    0.69    0.76
  WS02006116WS02004401 CONDUIT    536.31     0  02:33      0.98    0.74    0.84
  WS02006228WS02006109 CONDUIT    587.31     0  02:31      1.17    2.57    1.00
  WS02006229WS02006228 CONDUIT    579.30     0  02:31      1.15    1.92    1.00
  WS02006230WS02006229 CONDUIT    575.49     0  02:31      1.50   12.81    1.00
  WS02006231WS02006230 CONDUIT    578.00     0  02:30      1.57    8.77    1.00
  WS02006232WS02006231 CONDUIT    577.52     0  02:40      1.51    1.21    1.00
  WS02006234WS02006232 CONDUIT    575.55     0  02:40      1.50    1.16    1.00
  WS02006235WS02006234 CONDUIT    569.79     0  02:40      1.48    6.01    1.00
  WS02006238WS02006235 CONDUIT    425.76     0  03:00      1.56    0.95    1.00
  WS02006239WS02006238 CONDUIT    423.94     0  03:00      1.10    1.36    1.00
  WS02006240WS02006239 CONDUIT    422.62     0  03:00      1.24    1.33    1.00
  WS02006242WS02006240 CONDUIT    419.57     0  02:15      1.13    1.67    1.00
  WS02006243WS02006242 CONDUIT    419.16     0  02:15      1.40    0.90    1.00
  WS02006245WS02006243 CONDUIT    418.76     0  02:15      1.45    1.24    1.00
  WS02006247WS02006245 CONDUIT    418.81     0  02:45      1.43    3.32    1.00
  WS02006248WS02006247 CONDUIT    418.65     0  03:00      1.44    0.91    1.00
  WS02006249WS02006248 CONDUIT    419.09     0  03:00      1.36    2.30    1.00
  WS02006251WS02006249 CONDUIT    459.02     0  00:00      1.99    1.32    1.00
  WS02006252WS02006251 CONDUIT    404.86     0  02:54     24.61    1.49    1.00
  WS02006256WS02006235 CONDUIT    289.22     0  01:52      4.23    3.06    1.00
  WSF200WS02003060     CONDUIT    529.57     0  02:28      2.05    0.12    0.28
  YS02001580YS02001583 CONDUIT     74.38     0  02:13      0.53    0.29    1.00
  YS02001583YS02001586 CONDUIT    126.77     0  02:12      0.51    0.19    1.00
  YS02001586YS02001590 CONDUIT    320.36     0  02:33      1.24    0.56    1.00
  YS02001590YS02001593 CONDUIT    319.81     0  02:33      1.13    2.01    1.00
  YS02001593YS02001596 CONDUIT    318.28     0  02:33      1.72    0.50    1.00
  YS02001596YS02001600 CONDUIT    318.31     0  02:33      1.26    0.62    1.00
  YS02001600YS02001601 CONDUIT    318.74     0  02:33      1.13    0.55    1.00
  YS02001601YS02001602 CONDUIT    492.07     0  02:12      1.74    1.78    1.00
  YS02001602YS02001605 CONDUIT    492.00     0  02:12      1.74   10.41    1.00
  YS02001605YS02001607 CONDUIT    491.88     0  02:12      1.74    2.70    1.00
  YS02001607YS02001610 CONDUIT    491.96     0  02:12      0.63    0.47    1.00
  YS02001610YS02001613 CONDUIT    493.61     0  02:12      0.63    0.57    1.00
  YS02001613YS02001616 CONDUIT    494.63     0  02:11      0.64    0.42    1.00
  YS02001616YS02001619 CONDUIT    491.74     0  02:12      0.66    0.85    1.00
  YS02001619YS02001622 CONDUIT    927.83     0  02:25      1.18    1.37    1.00
  YS02001622YS02001625 CONDUIT    927.48     0  02:25      1.18    0.49    1.00
  YS02001625YS02001629 CONDUIT    892.83     0  02:15      1.14    0.42    1.00
  YS02001629YS02163301 CONDUIT    894.86     0  02:15      1.14    1.10    1.00
  YS02001633YS02163601 CONDUIT   1255.57     0  02:15      1.60    1.32    1.00
  YS02001641YS02001644 CONDUIT   1264.67     0  02:15      1.61    4.09    1.00
  YS02001644YS02001647 CONDUIT   1597.34     0  02:15      2.05    0.94    1.00
  YS02001647YS02001649 CONDUIT   1610.56     0  02:15      2.18    0.85    1.00
  YS02001649YS02001757 CONDUIT   1755.56     0  02:17      2.24    1.07    1.00
  YS02001652YS02001649 CONDUIT    828.36     0  02:25      1.05    0.41    1.00
  YS02001655YS02001652 CONDUIT    828.43     0  02:25      1.24    0.40    1.00
  YS02001658YS02001655 CONDUIT    828.27     0  02:25      1.80    0.35    1.00
  YS02001661YS02001658 CONDUIT    828.46     0  02:25      2.13    0.33    1.00
  YS02001664YS02001661 CONDUIT    864.92     0  02:23      2.03    0.27    0.76
  YS02001745YS02001748 CONDUIT    532.45     0  02:19      1.97    0.20    0.91
  YS02001748YS02001751 CONDUIT    513.27     0  02:25      1.57    0.26    1.00
  YS02001751YS02001754 CONDUIT    514.12     0  02:25      1.40    0.25    1.00
  YS02001754YS02001757 CONDUIT    513.80     0  02:25      0.65    0.21    1.00
  YS02001757CaochengTiaoxuchi CONDUIT   2991.23     0  02:23      3.81    1.29    1.00
  YS02001759YS02001757 CONDUIT   1239.51     0  02:23      1.58    0.88    1.00
  YS02001762YS02001759 CONDUIT    671.32     0  02:22      0.85    0.77    1.00
  YS02001765YS02001762 CONDUIT    670.46     0  02:21      0.85    0.63    1.00
  YS02001767YS02001765 CONDUIT    670.43     0  02:21      0.85    0.84    1.00
  YS02001770YS02001767 CONDUIT    670.08     0  02:21      0.85    2.65    1.00
  YS02001774YS02001770 CONDUIT    486.23     0  02:25      0.62    0.31    1.00
  YS02001779YS02001774 CONDUIT    486.75     0  02:25      0.62    0.25    1.00
  YS02001783YS02001784 CONDUIT   1163.37     0  02:24      2.31    1.60    1.00
  YS02001784YS02001785 CONDUIT   1164.45     0  02:24      2.32    2.71    1.00
  YS02001786YS02001788 CONDUIT   1164.26     0  02:24      2.49    2.24    0.89
  YS02001788YS02001790 CONDUIT   1180.17     0  02:24      2.72    0.87    0.84
  YS02001790YS02001791 CONDUIT   1285.04     0  02:23      3.42    1.40    0.70
  YS02001791YS02001793 CONDUIT   1249.63     0  02:23      6.74    0.54    0.44
  YS02001793JiankangQianchi CONDUIT   1271.65     0  02:35      2.54    0.10    0.65
  YS02001882YS02001884 CONDUIT     31.23     0  02:16      0.12    0.04    1.00
  YS02001884YS02001887 CONDUIT     42.01     0  02:15      0.08    0.06    1.00
  YS02001887YS02001890 CONDUIT    761.44     0  02:25      0.97    1.30    1.00
  YS02001890YS02001895 CONDUIT    517.46     0  02:26      0.66    0.24    1.00
  YS02001895YS02001898 CONDUIT    518.05     0  02:26      0.66    0.90    1.00
  YS02001898YS02001901 CONDUIT    518.03     0  02:26      0.66    0.33    1.00
  YS02001901YS02001904 CONDUIT    517.81     0  02:26      0.66    0.80    1.00
  YS02001904YS02001907 CONDUIT    517.80     0  02:26      0.66    0.18    1.00
  YS02001907YS02006553 CONDUIT    801.03     0  02:38      0.89    0.94    1.00
  YS02001910YS02001907 CONDUIT   1331.34     0  02:25      1.70    0.75    1.00
  YS02001915YS02001910 CONDUIT   1330.79     0  02:25      1.69    0.66    1.00
  YS02001918YS02001915 CONDUIT    453.77     0  02:20      0.58    0.25    1.00
  YS02001920YS02001918 CONDUIT    452.66     0  02:20      0.67    0.44    1.00
  YS02001923YS02001920 CONDUIT    449.21     0  02:25      0.69    0.20    1.00
  YS02001926YS02001923 CONDUIT    448.65     0  02:25      0.94    0.64    1.00
  YS02001929YS02001926 CONDUIT    448.72     0  02:25      1.08    0.21    1.00
  YS02006553YS02006556 CONDUIT    801.83     0  02:38      1.02    0.69    1.00
  YS02006556YS02006558 CONDUIT    804.45     0  02:38      1.02    0.64    1.00
  YS02006558YS02006561 CONDUIT   1163.35     0  02:24      4.11    2.57    1.00
  YS02006561YS02001783 CONDUIT   1163.19     0  02:24      2.31    0.60    1.00
  YS02163301YS02001633 CONDUIT    894.67     0  02:15      1.14    0.84    1.00
  YS02163601YS02164001 CONDUIT   1256.80     0  02:15      1.60    1.11    1.00
  YS02164001YS02001641 CONDUIT   1259.51     0  02:15      1.60    1.72    1.00
  CC-R1                PUMP       683.00     0  00:00              1.00
  CC-R2                PUMP       683.00     0  00:00              1.00
  CC-S1                PUMP       200.00     0  00:00              1.00
  CC-S2                PUMP       200.00     0  00:00              1.00
  JK-R1                PUMP      1000.00     0  00:00              1.00
  JK-R2                PUMP      1000.00     0  00:00              1.00
  JK-S                 PUMP       300.00     0  00:00              1.00
  
  
  ***************************
  Flow Classification Summary
  ***************************
  
  -------------------------------------------------------------------------------------
                      Adjusted    ---------- Fraction of Time in Flow Class ---------- 
                       /Actual         Up    Down  Sub   Sup   Up    Down  Norm  Inlet 
  Conduit               Length    Dry  Dry   Dry   Crit  Crit  Crit  Crit  Ltd   Ctrl  
  -------------------------------------------------------------------------------------
  1                       1.00   0.00  0.00  0.00  0.00  1.00  0.00  0.00  0.41  0.00
  WS02003060WS02003069    1.00   0.00  0.00  0.00  0.98  0.02  0.00  0.00  0.71  0.00
  WS02003066WSF200        1.00   0.13  0.00  0.00  0.00  0.87  0.00  0.00  0.79  0.00
  WS02003067WS02003066    1.00   0.10  0.02  0.00  0.88  0.00  0.00  0.00  0.00  0.00
  WS02003069WS02003072    1.00   0.00  0.00  0.00  0.99  0.01  0.00  0.00  0.73  0.00
  WS02003072WS02003073    1.00   0.00  0.00  0.00  0.00  0.00  0.00  1.00  0.00  0.00
  WS02004401WS02004402    1.00   0.02  0.00  0.00  0.98  0.00  0.00  0.00  0.00  0.00
  WS02004402WS02004403    1.00   0.02  0.00  0.00  0.97  0.00  0.00  0.00  0.00  0.00
  WS02004403WS02004404    1.00   0.00  0.03  0.00  0.97  0.00  0.00  0.00  0.00  0.00
  WS02004404WS02004405    1.00   0.00  0.00  0.00  1.00  0.00  0.00  0.00  0.00  0.00
  WS02004405WS02004406    1.00   0.00  0.00  0.00  1.00  0.00  0.00  0.00  0.00  0.00
  WS02004406WS02004407    1.00   0.00  0.05  0.00  0.95  0.00  0.00  0.00  0.00  0.00
  WS02004407WS02004409    1.00   0.05  0.00  0.00  0.94  0.01  0.00  0.00  0.94  0.00
  WS02004409WS02004410    1.00   0.05  0.00  0.00  0.95  0.00  0.00  0.00  0.03  0.00
  WS02004410WS02004411    1.00   0.05  0.00  0.00  0.95  0.00  0.00  0.00  0.01  0.00
  WS02004411WS02004412    1.00   0.05  0.00  0.00  0.95  0.00  0.00  0.00  0.00  0.00
  WS02004412WS02004413    1.00   0.05  0.00  0.00  0.94  0.00  0.00  0.00  0.01  0.00
  WS02004413WS02003067    1.00   0.06  0.04  0.00  0.00  0.00  0.90  0.00  0.00  0.00
  WS02006109WS02006110    1.00   0.00  0.01  0.00  0.98  0.00  0.01  0.00  0.00  0.00
  WS02006110WS02006113    1.00   0.01  0.01  0.00  0.98  0.00  0.00  0.00  0.00  0.00
  WS02006111WS02006112    1.00   0.02  0.00  0.00  0.98  0.00  0.00  0.00  0.98  0.00
  WS02006112WS02006115    1.00   0.02  0.00  0.00  0.97  0.00  0.00  0.00  0.00  0.00
  WS02006113WS02006111    1.00   0.02  0.00  0.00  0.00  0.98  0.00  0.00  0.12  0.00
  WS02006115WS02006116    1.00   0.02  0.00  0.00  0.97  0.00  0.00  0.01  0.00  0.00
  WS02006116WS02004401    1.00   0.02  0.00  0.00  0.98  0.00  0.00  0.00  0.00  0.00
  WS02006228WS02006109    1.00   0.00  0.00  0.00  1.00  0.00  0.00  0.00  0.00  0.00
  WS02006229WS02006228    1.00   0.00  0.00  0.00  0.99  0.00  0.00  0.01  0.00  0.00
  WS02006230WS02006229    1.00   0.00  0.00  0.00  0.99  0.00  0.00  0.01  0.00  0.00
  WS02006231WS02006230    1.00   0.00  0.00  0.00  0.26  0.00  0.73  0.00  0.00  0.00
  WS02006232WS02006231    1.00   0.00  0.00  0.00  0.98  0.00  0.01  0.00  0.00  0.00
  WS02006234WS02006232    1.00   0.00  0.00  0.00  1.00  0.00  0.00  0.00  0.15  0.00
  WS02006235WS02006234    1.00   0.00  0.00  0.00  0.78  0.00  0.22  0.00  0.00  0.00
  WS02006238WS02006235    1.00   0.00  0.00  0.00  1.00  0.00  0.00  0.00  0.00  0.00
  WS02006239WS02006238    1.00   0.00  0.00  0.00  1.00  0.00  0.00  0.00  0.32  0.00
  WS02006240WS02006239    1.00   0.00  0.00  0.00  0.59  0.00  0.00  0.40  0.03  0.00
  WS02006242WS02006240    1.00   0.00  0.00  0.00  0.99  0.00  0.01  0.00  0.00  0.00
  WS02006243WS02006242    1.00   0.00  0.00  0.00  0.98  0.00  0.00  0.01  0.54  0.00
  WS02006245WS02006243    1.00   0.00  0.00  0.00  0.69  0.00  0.00  0.31  0.01  0.00
  WS02006247WS02006245    1.00   0.00  0.00  0.00  0.98  0.00  0.00  0.01  0.00  0.00
  WS02006248WS02006247    1.00   0.00  0.00  0.00  0.99  0.00  0.00  0.01  0.26  0.00
  WS02006249WS02006248    1.00   0.00  0.00  0.00  0.46  0.00  0.54  0.00  0.00  0.00
  WS02006251WS02006249    1.00   0.00  0.00  0.00  1.00  0.00  0.00  0.00  0.55  0.00
  WS02006252WS02006251    1.00   0.00  0.58  0.00  0.08  0.00  0.34  0.00  0.00  0.00
  WS02006256WS02006235    1.00   0.00  0.00  0.00  0.99  0.00  0.00  0.00  0.00  0.00
  WSF200WS02003060        1.00   0.00  0.13  0.00  0.29  0.58  0.00  0.00  0.49  0.00
  YS02001580YS02001583    1.00   0.27  0.54  0.00  0.19  0.00  0.00  0.00  0.63  0.00
  YS02001583YS02001586    1.00   0.41  0.35  0.00  0.24  0.00  0.00  0.00  0.63  0.00
  YS02001586YS02001590    1.00   0.13  0.00  0.00  0.44  0.04  0.00  0.39  0.39  0.00
  YS02001590YS02001593    1.00   0.13  0.01  0.00  0.11  0.00  0.75  0.00  0.00  0.00
  YS02001593YS02001596    1.00   0.13  0.00  0.00  0.13  0.01  0.00  0.73  0.02  0.00
  YS02001596YS02001600    1.00   0.14  0.00  0.00  0.20  0.02  0.00  0.65  0.05  0.00
  YS02001600YS02001601    1.00   0.13  0.01  0.00  0.86  0.00  0.00  0.00  0.60  0.00
  YS02001601YS02001602    1.00   0.13  0.01  0.00  0.87  0.00  0.00  0.00  0.00  0.00
  YS02001602YS02001605    1.00   0.13  0.00  0.00  0.86  0.00  0.00  0.00  0.00  0.00
  YS02001605YS02001607    1.00   0.14  0.00  0.00  0.86  0.00  0.00  0.00  0.00  0.00
  YS02001607YS02001610    1.00   0.13  0.01  0.00  0.86  0.00  0.00  0.00  0.01  0.00
  YS02001610YS02001613    1.00   0.13  0.00  0.00  0.87  0.00  0.00  0.00  0.00  0.00
  YS02001613YS02001616    1.00   0.13  0.00  0.00  0.87  0.00  0.00  0.00  0.00  0.00
  YS02001616YS02001619    1.00   0.13  0.00  0.00  0.87  0.00  0.00  0.00  0.00  0.00
  YS02001619YS02001622    1.00   0.13  0.00  0.00  0.87  0.00  0.00  0.00  0.27  0.00
  YS02001622YS02001625    1.00   0.13  0.00  0.00  0.87  0.00  0.00  0.00  0.04  0.00
  YS02001625YS02001629    1.00   0.13  0.05  0.00  0.16  0.00  0.66  0.00  0.00  0.00
  YS02001629YS02163301    1.00   0.15  0.01  0.00  0.84  0.00  0.00  0.00  0.00  0.00
  YS02001633YS02163601    1.00   0.00  0.01  0.00  0.99  0.00  0.00  0.00  0.15  0.00
  YS02001641YS02001644    1.00   0.00  0.01  0.00  0.99  0.00  0.00  0.00  0.00  0.00
  YS02001644YS02001647    1.00   0.00  0.17  0.00  0.83  0.00  0.00  0.00  0.00  0.00
  YS02001647YS02001649    1.00   0.00  0.17  0.00  0.52  0.31  0.00  0.00  0.55  0.00
  YS02001649YS02001757    1.00   0.00  0.00  0.00  0.83  0.17  0.00  0.00  0.45  0.00
  YS02001652YS02001649    1.00   0.00  0.00  0.00  0.96  0.04  0.00  0.00  0.74  0.00
  YS02001655YS02001652    1.00   0.00  0.00  0.00  0.18  0.01  0.00  0.81  0.05  0.00
  YS02001658YS02001655    1.00   0.00  0.14  0.00  0.66  0.20  0.00  0.00  0.69  0.00
  YS02001661YS02001658    1.00   0.14  0.00  0.00  0.50  0.36  0.00  0.00  0.71  0.00
  YS02001664YS02001661    1.00   0.13  0.00  0.00  0.78  0.09  0.00  0.00  0.86  0.00
  YS02001745YS02001748    1.00   0.00  0.00  0.00  0.10  0.00  0.00  0.90  0.04  0.00
  YS02001748YS02001751    1.00   0.00  0.00  0.00  0.82  0.18  0.00  0.00  0.73  0.00
  YS02001751YS02001754    1.00   0.00  0.00  0.00  0.15  0.00  0.00  0.84  0.03  0.00
  YS02001754YS02001757    1.00   0.00  0.00  0.00  1.00  0.00  0.00  0.00  0.83  0.00
  YS02001757CaochengTiaoxuchi    1.00   0.00  0.00  0.00  1.00  0.00  0.00  0.00  0.64  0.00
  YS02001759YS02001757    1.00   0.00  0.00  0.00  1.00  0.00  0.00  0.00  0.52  0.00
  YS02001762YS02001759    1.00   0.00  0.00  0.00  1.00  0.00  0.00  0.00  0.06  0.00
  YS02001765YS02001762    1.00   0.00  0.00  0.00  1.00  0.00  0.00  0.00  0.66  0.00
  YS02001767YS02001765    1.00   0.00  0.00  0.00  1.00  0.00  0.00  0.00  0.01  0.00
  YS02001770YS02001767    1.00   0.00  0.00  0.00  1.00  0.00  0.00  0.00  0.00  0.00
  YS02001774YS02001770    1.00   0.00  0.13  0.00  0.70  0.00  0.16  0.00  0.03  0.00
  YS02001779YS02001774    1.00   0.00  0.00  0.00  1.00  0.00  0.00  0.00  0.76  0.00
  YS02001783YS02001784    1.00   0.00  0.18  0.00  0.82  0.00  0.00  0.00  0.55  0.00
  YS02001784YS02001785    1.00   0.00  0.00  0.00  1.00  0.00  0.00  0.00  0.17  0.00
  YS02001786YS02001788    1.00   0.00  0.00  0.00  0.79  0.21  0.00  0.00  0.00  0.00
  YS02001788YS02001790    1.00   0.00  0.00  0.00  0.21  0.79  0.00  0.00  0.80  0.00
  YS02001790YS02001791    1.00   0.00  0.00  0.00  0.01  0.99  0.00  0.00  0.17  0.00
  YS02001791YS02001793    1.00   0.00  0.00  0.00  0.00  1.00  0.00  0.00  0.01  0.00
  YS02001793JiankangQianchi    1.00   0.00  0.00  0.00  0.99  0.01  0.00  0.00  0.96  0.00
  YS02001882YS02001884    1.00   0.15  0.01  0.00  0.84  0.00  0.00  0.00  0.00  0.00
  YS02001884YS02001887    1.00   0.06  0.05  0.00  0.89  0.00  0.00  0.00  0.00  0.00
  YS02001887YS02001890    1.00   0.00  0.00  0.00  0.97  0.00  0.03  0.00  0.00  0.00
  YS02001890YS02001895    1.00   0.00  0.16  0.00  0.83  0.00  0.00  0.00  0.00  0.00
  YS02001895YS02001898    1.00   0.17  0.00  0.00  0.81  0.00  0.02  0.00  0.00  0.00
  YS02001898YS02001901    1.00   0.17  0.00  0.00  0.83  0.00  0.00  0.00  0.01  0.00
  YS02001901YS02001904    1.00   0.17  0.00  0.00  0.83  0.00  0.00  0.00  0.00  0.00
  YS02001904YS02001907    1.00   0.00  0.16  0.00  0.83  0.00  0.00  0.00  0.00  0.00
  YS02001907YS02006553    1.00   0.00  0.02  0.00  0.98  0.00  0.00  0.00  0.00  0.00
  YS02001910YS02001907    1.00   0.00  0.00  0.00  0.97  0.00  0.00  0.03  0.12  0.00
  YS02001915YS02001910    1.00   0.00  0.00  0.00  0.97  0.03  0.00  0.00  0.16  0.00
  YS02001918YS02001915    1.00   0.00  0.01  0.00  0.98  0.02  0.00  0.00  0.75  0.00
  YS02001920YS02001918    1.00   0.00  0.01  0.00  0.99  0.00  0.00  0.00  0.00  0.00
  YS02001923YS02001920    1.00   0.00  0.00  0.00  1.00  0.00  0.00  0.00  0.93  0.00
  YS02001926YS02001923    1.00   0.00  0.07  0.00  0.05  0.00  0.87  0.00  0.00  0.00
  YS02001929YS02001926    1.00   0.00  0.13  0.00  0.87  0.00  0.00  0.00  0.83  0.00
  YS02006553YS02006556    1.00   0.01  0.00  0.00  0.99  0.00  0.00  0.00  0.03  0.00
  YS02006556YS02006558    1.00   0.00  0.00  0.00  1.00  0.00  0.00  0.00  0.00  0.00
  YS02006558YS02006561    1.00   0.18  0.00  0.00  0.05  0.77  0.00  0.00  0.19  0.00
  YS02006561YS02001783    1.00   0.18  0.00  0.00  0.09  0.73  0.00  0.00  0.69  0.00
  YS02163301YS02001633    1.00   0.00  0.15  0.00  0.85  0.00  0.00  0.00  0.00  0.00
  YS02163601YS02164001    1.00   0.00  0.08  0.00  0.92  0.00  0.00  0.00  0.00  0.00
  YS02164001YS02001641    1.00   0.01  0.07  0.00  0.92  0.00  0.00  0.00  0.05  0.00
  
  
  *************************
  Conduit Surcharge Summary
  *************************
  
  ----------------------------------------------------------------------------
                                                           Hours        Hours 
                         --------- Hours Full --------   Above Full   Capacity
  Conduit                Both Ends  Upstream  Dnstream   Normal Flow   Limited
  ----------------------------------------------------------------------------
  WS02003072WS02003073        0.01      0.01      0.01      0.97         0.01
  WS02004404WS02004405        0.01      0.01      0.01      3.28         0.01
  WS02004405WS02004406        0.01      0.01      0.01      0.40         0.01
  WS02006109WS02006110        0.42      0.42      1.99      0.55         0.01
  WS02006110WS02006113        0.01      0.01      1.95      0.01         0.01
  WS02006111WS02006112        0.01      0.01      2.12      0.01         0.01
  WS02006112WS02006115        0.01      0.01      0.49      0.01         0.01
  WS02006228WS02006109        1.90      1.98      1.90      2.43         1.89
  WS02006229WS02006228        1.89      1.93      1.89      2.18         1.88
  WS02006230WS02006229        2.06      2.14      2.06      4.00         2.06
  WS02006231WS02006230        0.45      0.45      0.62      3.57         0.01
  WS02006232WS02006231        0.58      0.58      1.99      0.62         0.01
  WS02006234WS02006232        1.83      1.83      1.99      0.62         0.59
  WS02006235WS02006234        0.86      0.87      1.88      3.47         0.02
  WS02006238WS02006235        1.92      1.92      2.00      0.01         0.01
  WS02006239WS02006238        1.92      1.94      1.95      1.96         1.75
  WS02006240WS02006239        1.86      1.89      1.86      1.97         1.67
  WS02006242WS02006240        1.88      1.88      1.94      2.04         0.01
  WS02006243WS02006242        1.90      1.90      1.93      0.01         0.04
  WS02006245WS02006243        1.89      1.90      1.89      1.47         1.46
  WS02006247WS02006245        1.90      1.92      1.90      3.31         1.88
  WS02006248WS02006247        1.90      1.90      1.91      0.01         0.04
  WS02006249WS02006248        1.89      1.89      1.90      3.28         0.01
  WS02006251WS02006249        1.90      1.90      1.90      1.98         1.84
  WS02006252WS02006251        2.01      2.01      2.02      2.02         0.01
  WS02006256WS02006235        3.45      3.49      5.41      0.99         0.01
  YS02001580YS02001583        0.55      0.55      0.60      0.01         0.01
  YS02001583YS02001586        0.55      0.55      0.68      0.01         0.01
  YS02001586YS02001590        0.69      0.69      0.76      0.01         0.01
  YS02001590YS02001593        0.76      0.76      0.78      0.78         0.01
  YS02001593YS02001596        0.78      0.78      0.89      0.01         0.01
  YS02001596YS02001600        0.94      0.94      1.04      0.01         0.01
  YS02001600YS02001601        1.10      1.10      1.38      0.01         0.01
  YS02001601YS02001602        1.27      1.27      1.43      1.04         0.01
  YS02001602YS02001605        1.22      1.22      1.27      2.33         0.01
  YS02001605YS02001607        1.17      1.22      1.17      1.33         1.17
  YS02001607YS02001610        0.75      0.75      0.78      0.01         0.01
  YS02001610YS02001613        0.75      0.75      0.78      0.01         0.01
  YS02001613YS02001616        0.71      0.71      0.75      0.01         0.01
  YS02001616YS02001619        0.69      0.69      0.71      0.01         0.01
  YS02001619YS02001622        0.69      0.69      0.69      0.75         0.64
  YS02001622YS02001625        0.69      0.69      0.88      0.01         0.01
  YS02001625YS02001629        0.65      0.65      0.88      0.01         0.01
  YS02001629YS02163301        0.88      0.88      0.89      0.06         0.12
  YS02001633YS02163601        0.91      0.91      0.94      0.27         0.25
  YS02001641YS02001644        0.82      0.85      0.82      1.48         0.80
  YS02001644YS02001647        0.62      0.62      0.82      0.01         0.01
  YS02001647YS02001649        0.62      0.62      0.75      0.01         0.01
  YS02001649YS02001757        0.75      0.75      0.82      0.04         0.04
  YS02001652YS02001649        0.58      0.58      0.75      0.01         0.01
  YS02001655YS02001652        0.42      0.42      0.56      0.01         0.01
  YS02001658YS02001655        0.23      0.23      0.42      0.01         0.01
  YS02001661YS02001658        0.02      0.02      0.23      0.01         0.01
  YS02001664YS02001661        0.01      0.01      0.06      0.01         0.01
  YS02001745YS02001748        0.01      0.01      0.17      0.01         0.01
  YS02001748YS02001751        0.21      0.21      0.32      0.01         0.01
  YS02001751YS02001754        0.31      0.31      0.48      0.01         0.01
  YS02001754YS02001757        0.52      0.52      0.82      0.01         0.01
  YS02001757CaochengTiaoxuchi        0.82      0.82      1.88      0.30         0.30
  YS02001759YS02001757        0.73      0.73      0.82      0.01         0.01
  YS02001762YS02001759        0.70      0.70      0.73      0.01         0.01
  YS02001765YS02001762        0.66      0.66      0.70      0.01         0.01
  YS02001767YS02001765        0.62      0.62      0.66      0.01         0.02
  YS02001770YS02001767        0.62      0.62      0.62      0.42         0.40
  YS02001774YS02001770        0.59      0.59      0.67      0.01         0.01
  YS02001779YS02001774        0.47      0.47      0.67      0.01         0.01
  YS02001783YS02001784        0.47      0.49      0.47      0.66         0.47
  YS02001784YS02001785        0.36      0.47      0.36      0.91         0.36
  YS02001786YS02001788        0.01      0.36      0.01      0.77         0.01
  YS02001790YS02001791        0.01      0.01      0.01      0.45         0.01
  YS02001793JiankangQianchi        0.01      0.01      7.70      0.01         0.01
  YS02001882YS02001884        0.44      0.44      0.44      0.01         0.01
  YS02001884YS02001887        0.47      0.47      0.48      0.01         0.01
  YS02001887YS02001890        0.50      0.50      0.51      0.09         0.01
  YS02001890YS02001895        0.42      0.42      0.52      0.01         0.01
  YS02001895YS02001898        0.41      0.41      0.42      0.01         0.01
  YS02001898YS02001901        0.43      0.43      0.47      0.01         0.01
  YS02001901YS02001904        0.46      0.46      0.47      0.01         0.01
  YS02001904YS02001907        0.46      0.46      0.76      0.01         0.01
  YS02001907YS02006553        0.92      0.92      1.00      0.01         0.01
  YS02001910YS02001907        0.52      0.52      0.74      0.01         0.01
  YS02001915YS02001910        0.43      0.43      0.52      0.01         0.01
  YS02001918YS02001915        0.35      0.35      0.43      0.01         0.01
  YS02001920YS02001918        0.35      0.35      0.36      0.01         0.01
  YS02001923YS02001920        0.31      0.31      0.36      0.01         0.01
  YS02001926YS02001923        0.05      0.05      0.11      0.01         0.01
  YS02001929YS02001926        0.01      0.01      0.11      0.01         0.01
  YS02006553YS02006556        0.62      0.62      0.76      0.01         0.01
  YS02006556YS02006558        0.69      0.69      0.78      0.01         0.01
  YS02006558YS02006561        0.38      0.61      0.38      0.86         0.38
  YS02006561YS02001783        0.31      0.31      0.49      0.01         0.01
  YS02163301YS02001633        0.89      0.89      0.92      0.01         0.01
  YS02163601YS02164001        0.85      0.85      0.94      0.07         0.01
  YS02164001YS02001641        0.85      0.85      0.85      0.64         0.55
  
  
  ***************
  Pumping Summary
  ***************
  
  ---------------------------------------------------------------------------------------------------------
                                                  Min       Avg       Max     Total     Power    % Time Off
                        Percent   Number of      Flow      Flow      Flow    Volume     Usage    Pump Curve
  Pump                 Utilized   Start-Ups       LPS       LPS       LPS  10^6 ltr     Kw-hr    Low   High
  ---------------------------------------------------------------------------------------------------------
  CC-R1                   16.08           2      0.00    683.00    683.00     3.163     60.27    0.0    6.5
  CC-R2                   14.47           2      0.00    683.00    683.00     2.847     54.43    0.0    7.2
  CC-S1                   42.17           4      0.00    200.00    200.00     2.429     13.81    0.0    0.0
  CC-S2                   25.19           2      0.00    200.00    200.00     1.451      7.92    0.0    0.0
  JK-R1                    7.96          12      0.00   1000.00   1000.00     2.293     24.33    0.0    0.0
  JK-R2                    1.84           5      0.00   1000.00   1000.00     0.529      5.63    0.0    0.0
  JK-S                    12.36          15      0.00    300.00    300.00     1.068     15.00    0.0    0.0
  

  Analysis begun on:  Mon Feb 24 09:53:52 2025
  Analysis ended on:  Mon Feb 24 09:53:54 2025
  Total elapsed time: 00:00:02