
  EPA STORM WATER MANAGEMENT MODEL - VERSION 5.2 (Build 5.2.4)
  PYSWMM TOOLKIT API - VERSION v1.0 (2023-11-27)
  ------------------------------------------------------------

  WARNING 04: minimum elevation drop used for Conduit WS02004404WS02004405
  WARNING 03: negative offset ignored for Link YS02001904YS02001907
  
  ****************
  Analysis Options
  ****************
  Flow Units ............... LPS
  Process Models:
    Rainfall/Runoff ........ YES
    RDII ................... NO
    Snowmelt ............... NO
    Groundwater ............ NO
    Flow Routing ........... YES
    Ponding Allowed ........ NO
    Water Quality .......... NO
  Infiltration Method ...... HORTON
  Flow Routing Method ...... DYNWAVE
  Surcharge Method ......... EXTRAN
  Starting Date ............ 08/28/2015 08:00:00
  Ending Date .............. 08/28/2015 16:00:00
  Antecedent Dry Days ...... 8.0
  Report Time Step ......... 00:01:00
  Wet Time Step ............ 00:01:00
  Dry Time Step ............ 00:01:00
  Routing Time Step ........ 30.00 sec
  Variable Time Step ....... YES
  Maximum Trials ........... 8
  Number of Threads ........ 4
  Head Tolerance ........... 0.001500 m
  
  
  **************************        Volume         Depth
  Runoff Quantity Continuity     hectare-m            mm
  **************************     ---------       -------
  Total Precipitation ......         2.665        80.329
  Evaporation Loss .........         0.000         0.000
  Infiltration Loss ........         0.102         3.082
  Surface Runoff ...........         2.530        76.267
  Final Storage ............         0.033         0.995
  Continuity Error (%) .....        -0.019
  
  
  **************************        Volume        Volume
  Flow Routing Continuity        hectare-m      10^6 ltr
  **************************     ---------     ---------
  Dry Weather Inflow .......         0.025         0.251
  Wet Weather Inflow .......         2.530        25.296
  Groundwater Inflow .......         0.000         0.000
  RDII Inflow ..............         0.000         0.000
  External Inflow ..........         0.083         0.834
  External Outflow .........         1.682        16.822
  Flooding Loss ............         0.925         9.248
  Evaporation Loss .........         0.000         0.000
  Exfiltration Loss ........         0.000         0.000
  Initial Stored Volume ....         0.243         2.431
  Final Stored Volume ......         0.279         2.786
  Continuity Error (%) .....        -0.152
  
  
  *************************
  Highest Continuity Errors
  *************************
  Node YS02001884 (5.12%)
  Node YS02001583 (-4.83%)
  
  
  ***************************
  Time-Step Critical Elements
  ***************************
  Link WS02006252WS02006251 (46.25%)
  Link WS02004404WS02004405 (14.12%)
  Link YS02001791YS02001793 (8.86%)
  Link WS02006238WS02006235 (8.66%)
  Link WS02006235WS02006234 (7.36%)
  
  
  ********************************
  Highest Flow Instability Indexes
  ********************************
  Link WS02006113WS02006111 (47)
  Link WS02006111WS02006112 (28)
  Link WS02006252WS02006251 (16)
  Link WS02006238WS02006235 (15)
  Link YS02001602YS02001605 (14)
  
  
  *********************************
  Most Frequent Nonconverging Nodes
  *********************************
  Node CC-1 (10.80%)
  Node CC-2 (10.80%)
  Node JK-1 (10.80%)
  Node JK-2 (10.80%)
  Node WSC (10.80%)
  
  
  *************************
  Routing Time Step Summary
  *************************
  Minimum Time Step           :     0.02 sec
  Average Time Step           :     2.02 sec
  Maximum Time Step           :     7.04 sec
  % of Time in Steady State   :     0.00
  Average Iterations per Step :     3.04
  % of Steps Not Converging   :    10.80
  Time Step Frequencies       :
     30.000 - 13.228 sec      :     0.00 %
     13.228 -  5.833 sec      :     9.08 %
      5.833 -  2.572 sec      :    19.39 %
      2.572 -  1.134 sec      :    20.01 %
      1.134 -  0.500 sec      :    51.52 %
  
  
  ***************************
  Subcatchment Runoff Summary
  ***************************
  
  ------------------------------------------------------------------------------------------------------------------------------
                            Total      Total      Total      Total     Imperv       Perv      Total       Total     Peak  Runoff
                           Precip      Runon       Evap      Infil     Runoff     Runoff     Runoff      Runoff   Runoff   Coeff
  Subcatchment                 mm         mm         mm         mm         mm         mm         mm    10^6 ltr      LPS
  ------------------------------------------------------------------------------------------------------------------------------
  sub60                     80.33       0.00       0.00       1.86      69.49       7.78      77.27        1.02   603.58   0.962
  sub61                     80.33       0.00       0.00       2.70      65.54      10.96      76.51        1.40   837.31   0.952
  sub62                     80.33       0.00       0.00       1.24      72.62       5.19      77.81        2.13  1181.97   0.969
  sub63                     80.33       0.00       0.00       4.96      56.07      18.34      74.41        1.69   937.30   0.926
  sub64                     80.33       0.00       0.00       2.51      67.07       9.54      76.62        1.84   969.17   0.954
  sub65                     80.33       0.00       0.00       2.17      68.63       8.27      76.91        2.12  1083.46   0.957
  sub66                     80.33       0.00       0.00       6.10      55.96      17.20      73.15        3.41  1436.39   0.911
  sub67                     80.33       0.00       0.00       1.19      72.66       5.23      77.90        1.45   902.01   0.970
  sub68                     80.33       0.00       0.00       2.23      67.90       9.02      76.91        2.12  1206.49   0.957
  sub69                     80.33       0.00       0.00       2.00      68.17      10.05      78.22        2.90  1442.15   0.974
  sub70                     80.33       0.00       0.00       6.60      52.85      20.71      73.56        2.13   809.71   0.916
  sub71                     80.33       0.00       0.00       1.27      72.58       5.16      77.73        2.03  1048.86   0.968
  sub72                     80.33       0.00       0.00       1.13      73.30       4.49      77.80        1.07   511.20   0.968
  
  
  ******************
  Node Depth Summary
  ******************
  
  ---------------------------------------------------------------------------------
                                 Average  Maximum  Maximum  Time of Max    Reported
                                   Depth    Depth      HGL   Occurrence   Max Depth
  Node                 Type       Meters   Meters   Meters  days hr:min      Meters
  ---------------------------------------------------------------------------------
  WS02003060           JUNCTION     0.24     0.38     5.31     0  03:13        0.38
  WS02003066           JUNCTION     0.20     0.30     5.85     0  03:12        0.30
  WS02003067           JUNCTION     0.51     0.70     6.02     0  03:12        0.70
  WS02003069           JUNCTION     0.27     0.43     5.01     0  03:13        0.43
  WS02003072           JUNCTION     0.33     0.50     4.87     0  03:14        0.50
  WS02003073           JUNCTION     0.19     0.30     4.36     0  03:14        0.30
  WS02004401           JUNCTION     0.59     0.85     6.85     0  02:10        0.85
  WS02004402           JUNCTION     0.63     0.88     6.84     0  02:11        0.88
  WS02004403           JUNCTION     0.65     0.89     6.82     0  02:11        0.89
  WS02004404           JUNCTION     0.72     0.96     6.81     0  02:11        0.96
  WS02004405           JUNCTION     0.72     0.96     6.81     0  02:11        0.95
  WS02004406           JUNCTION     0.73     0.96     6.79     0  02:11        0.96
  WS02004407           JUNCTION     0.18     0.30     6.61     0  03:11        0.30
  WS02004409           JUNCTION     0.40     0.67     6.44     0  03:11        0.67
  WS02004410           JUNCTION     0.43     0.68     6.40     0  03:12        0.68
  WS02004411           JUNCTION     0.45     0.69     6.37     0  03:12        0.69
  WS02004412           JUNCTION     0.47     0.70     6.34     0  03:12        0.70
  WS02004413           JUNCTION     0.63     0.86     6.33     0  03:12        0.86
  WS02006109           JUNCTION     0.65     1.18     7.80     0  02:32        1.00
  WS02006110           JUNCTION     0.66     1.33     7.91     0  02:32        0.94
  WS02006111           JUNCTION     0.18     0.29     7.00     0  03:00        0.29
  WS02006112           JUNCTION     0.75     1.07     6.96     0  02:27        1.06
  WS02006113           JUNCTION     0.27     0.46     7.35     0  03:00        0.46
  WS02006115           JUNCTION     0.48     0.75     6.89     0  02:10        0.75
  WS02006116           JUNCTION     0.56     0.83     6.87     0  02:10        0.83
  WS02006228           JUNCTION     0.65     1.32     7.97     0  02:16        1.10
  WS02006229           JUNCTION     0.62     1.40     8.09     0  02:16        1.15
  WS02006230           JUNCTION     0.62     1.62     8.36     0  02:16        1.32
  WS02006231           JUNCTION     0.43     1.49     8.62     0  02:00        1.08
  WS02006232           JUNCTION     0.56     1.42     8.46     0  02:16        1.42
  WS02006234           JUNCTION     0.49     1.75     8.91     0  02:32        1.75
  WS02006235           JUNCTION     0.53     1.99     9.15     0  02:32        1.99
  WS02006238           JUNCTION     0.56     2.03     9.17     0  02:32        2.03
  WS02006239           JUNCTION     0.52     1.84     9.05     0  02:32        1.84
  WS02006240           JUNCTION     0.49     1.68     8.97     0  02:32        1.66
  WS02006242           JUNCTION     0.56     1.55     8.82     0  02:05        1.55
  WS02006243           JUNCTION     0.47     1.42     8.84     0  02:20        1.36
  WS02006245           JUNCTION     0.47     1.33     8.82     0  02:32        1.24
  WS02006247           JUNCTION     0.50     1.27     8.77     0  02:20        1.21
  WS02006248           JUNCTION     0.46     1.10     8.69     0  01:50        1.10
  WS02006249           JUNCTION     0.49     1.09     8.69     0  01:46        1.09
  WS02006251           JUNCTION     0.49     1.59     9.26     0  02:32        1.24
  WS02006252           JUNCTION     0.36     1.50     9.74     0  00:00        0.83
  WS02006256           JUNCTION     1.02     2.35     9.28     0  00:00        2.35
  WSF200               JUNCTION     0.17     0.29     5.52     0  03:13        0.29
  YS02001580           JUNCTION     0.11     1.05     9.59     0  01:42        0.78
  YS02001583           JUNCTION     0.15     1.14     9.64     0  01:41        1.14
  YS02001586           JUNCTION     0.22     1.13     9.30     0  01:41        1.13
  YS02001590           JUNCTION     0.32     1.40     9.26     0  01:42        1.40
  YS02001593           JUNCTION     0.26     1.44     9.30     0  01:42        1.44
  YS02001596           JUNCTION     0.36     1.79     9.21     0  01:42        1.79
  YS02001600           JUNCTION     0.42     1.87     9.00     0  01:42        1.87
  YS02001601           JUNCTION     0.61     2.06     8.90     0  01:41        2.06
  YS02001602           JUNCTION     0.52     1.87     8.77     0  01:41        1.87
  YS02001605           JUNCTION     0.48     1.78     8.68     0  01:41        1.78
  YS02001607           JUNCTION     0.47     1.68     8.53     0  01:41        1.65
  YS02001610           JUNCTION     0.52     1.68     8.48     0  01:41        1.68
  YS02001613           JUNCTION     0.48     1.70     8.54     0  01:41        1.68
  YS02001616           JUNCTION     0.41     1.61     8.52     0  01:41        1.61
  YS02001619           JUNCTION     0.38     1.61     8.54     0  01:41        1.60
  YS02001622           JUNCTION     0.37     1.62     8.52     0  01:41        1.58
  YS02001625           JUNCTION     0.64     1.78     8.38     0  01:41        1.78
  YS02001629           JUNCTION     0.50     1.85     8.40     0  01:41        1.85
  YS02001633           JUNCTION     0.58     2.02     8.47     0  01:45        1.98
  YS02001641           JUNCTION     0.56     1.95     8.39     0  01:45        1.94
  YS02001644           JUNCTION     0.56     1.92     8.35     0  01:45        1.92
  YS02001647           JUNCTION     0.35     1.78     8.39     0  01:46        1.78
  YS02001649           JUNCTION     0.40     2.04     8.43     0  01:47        2.04
  YS02001652           JUNCTION     0.29     1.97     8.57     0  01:47        1.97
  YS02001655           JUNCTION     0.23     1.97     8.82     0  01:46        1.83
  YS02001658           JUNCTION     0.17     1.98     9.13     0  01:46        1.55
  YS02001661           JUNCTION     0.18     1.44     8.85     0  01:46        1.23
  YS02001664           JUNCTION     0.06     0.65     8.58     0  01:47        0.62
  YS02001745           JUNCTION     0.09     0.87     8.39     0  01:46        0.85
  YS02001748           JUNCTION     0.16     1.81     8.89     0  01:46        1.28
  YS02001751           JUNCTION     0.20     1.76     8.64     0  01:46        1.45
  YS02001754           JUNCTION     0.26     1.81     8.42     0  01:46        1.71
  YS02001757           JUNCTION     0.44     2.05     8.31     0  01:46        2.03
  YS02001759           JUNCTION     0.37     2.03     8.39     0  01:49        2.01
  YS02001762           JUNCTION     0.36     2.00     8.40     0  01:46        1.99
  YS02001765           JUNCTION     0.34     1.98     8.43     0  01:46        1.95
  YS02001767           JUNCTION     0.33     1.94     8.43     0  01:46        1.92
  YS02001770           JUNCTION     0.34     1.95     8.44     0  01:46        1.93
  YS02001774           JUNCTION     0.41     2.00     8.42     0  01:46        1.98
  YS02001779           JUNCTION     0.25     1.68     8.37     0  01:44        1.68
  YS02001783           JUNCTION     0.25     1.31     7.45     0  01:44        1.23
  YS02001784           JUNCTION     0.27     1.18     7.24     0  01:44        1.12
  YS02001786           JUNCTION     0.22     0.92     6.95     0  01:44        0.87
  YS02001788           JUNCTION     0.16     0.62     6.60     0  01:48        0.62
  YS02001790           JUNCTION     0.19     0.73     6.37     0  01:47        0.72
  YS02001791           JUNCTION     0.12     0.44     5.91     0  01:53        0.44
  YS02001793           JUNCTION     0.06     0.30     5.13     0  01:50        0.29
  YS02001882           JUNCTION     0.32     1.67     8.39     0  01:44        1.65
  YS02001884           JUNCTION     0.42     1.76     8.38     0  01:44        1.74
  YS02001887           JUNCTION     0.49     1.83     8.37     0  01:48        1.83
  YS02001890           JUNCTION     0.52     1.81     8.32     0  01:44        1.81
  YS02001895           JUNCTION     0.29     1.57     8.31     0  01:50        1.56
  YS02001898           JUNCTION     0.30     1.57     8.30     0  01:44        1.56
  YS02001901           JUNCTION     0.42     1.68     8.29     0  01:44        1.68
  YS02001904           JUNCTION     0.40     1.64     8.27     0  01:50        1.64
  YS02001907           JUNCTION     0.72     1.96     8.25     0  01:44        1.96
  YS02001910           JUNCTION     0.52     1.97     8.47     0  01:45        1.90
  YS02001915           JUNCTION     0.33     1.91     8.63     0  01:45        1.83
  YS02001918           JUNCTION     0.18     1.81     8.88     0  01:45        1.50
  YS02001920           JUNCTION     0.26     2.14     9.15     0  01:45        1.58
  YS02001923           JUNCTION     0.14     2.03     9.29     0  01:45        1.34
  YS02001926           JUNCTION     0.17     1.90     9.35     0  01:45        1.17
  YS02001929           JUNCTION     0.10     1.78     9.47     0  01:45        0.93
  YS02006553           JUNCTION     0.73     1.98     8.27     0  01:48        1.98
  YS02006556           JUNCTION     0.70     1.97     8.28     0  01:48        1.95
  YS02006558           JUNCTION     0.74     2.02     8.28     0  01:48        2.01
  YS02006561           JUNCTION     0.16     1.00     7.66     0  01:44        0.91
  YS02163301           JUNCTION     0.52     1.92     8.43     0  01:45        1.91
  YS02163601           JUNCTION     0.62     2.04     8.44     0  01:45        2.01
  YS02164001           JUNCTION     0.55     1.95     8.41     0  01:45        1.93
  CC-1                 OUTFALL      0.00     0.00     0.00     0  00:00        0.00
  CC-2                 OUTFALL      0.00     0.00     0.00     0  00:00        0.00
  JK-1                 OUTFALL      0.00     0.00     0.00     0  00:00        0.00
  JK-2                 OUTFALL      0.00     0.00     0.00     0  00:00        0.00
  WSC                  OUTFALL      0.19     0.30     0.97     0  03:15        0.30
  CC-storage           STORAGE      1.03     1.85     7.35     0  02:27        1.85
  JK-storage           STORAGE      3.36     4.23     5.03     0  02:10        4.18
  
  
  *******************
  Node Inflow Summary
  *******************
  
  -------------------------------------------------------------------------------------------------
                                  Maximum  Maximum                  Lateral       Total        Flow
                                  Lateral    Total  Time of Max      Inflow      Inflow     Balance
                                   Inflow   Inflow   Occurrence      Volume      Volume       Error
  Node                 Type           LPS      LPS  days hr:min    10^6 ltr    10^6 ltr     Percent
  -------------------------------------------------------------------------------------------------
  WS02003060           JUNCTION     16.53   551.96     0  03:13       0.476        5.76       0.042
  WS02003066           JUNCTION      0.00   535.37     0  03:12           0        5.28       0.028
  WS02003067           JUNCTION      0.00   535.35     0  03:12           0        5.29       0.081
  WS02003069           JUNCTION      0.32   552.26     0  03:13     0.00922        5.76       0.076
  WS02003072           JUNCTION      0.00   552.16     0  03:14           0        5.76       0.134
  WS02003073           JUNCTION      1.82   553.89     0  03:14      0.0524         5.8       0.111
  WS02004401           JUNCTION      0.00   538.97     0  02:10           0        5.39       0.191
  WS02004402           JUNCTION      0.00   538.37     0  02:10           0        5.38       0.194
  WS02004403           JUNCTION      0.00   537.28     0  02:11           0        5.37       0.189
  WS02004404           JUNCTION      0.16   537.39     0  02:11     0.00467        5.36       0.157
  WS02004405           JUNCTION      0.04   536.97     0  02:11      0.0011        5.36       0.235
  WS02004406           JUNCTION      0.00   537.11     0  02:11           0        5.34       0.390
  WS02004407           JUNCTION      0.00   536.35     0  02:11           0        5.32       0.023
  WS02004409           JUNCTION      0.00   535.95     0  03:11           0        5.32       0.055
  WS02004410           JUNCTION      0.00   535.78     0  03:11           0        5.32       0.087
  WS02004411           JUNCTION      0.00   535.62     0  03:12           0        5.31       0.110
  WS02004412           JUNCTION      0.00   535.50     0  03:12           0        5.31       0.146
  WS02004413           JUNCTION      0.00   535.40     0  03:12           0         5.3       0.257
  WS02006109           JUNCTION      1.23   563.39     0  02:16      0.0354        5.43       0.146
  WS02006110           JUNCTION      0.00   564.70     0  02:58           0        5.42       0.119
  WS02006111           JUNCTION      0.00   566.10     0  03:00           0        5.42       0.015
  WS02006112           JUNCTION      0.00   545.99     0  03:00           0        5.42       0.325
  WS02006113           JUNCTION      0.00   569.94     0  02:58           0        5.42       0.031
  WS02006115           JUNCTION      0.00   549.12     0  02:29           0         5.4       0.122
  WS02006116           JUNCTION      0.00   541.81     0  02:10           0        5.39       0.053
  WS02006228           JUNCTION      0.00   561.47     0  02:16           0         5.4       0.050
  WS02006229           JUNCTION      0.00   561.74     0  02:16           0        5.41       0.101
  WS02006230           JUNCTION     10.28   589.82     0  01:55       0.296        5.41       0.085
  WS02006231           JUNCTION      0.00   606.74     0  02:32           0        5.11      -0.105
  WS02006232           JUNCTION      0.00   602.56     0  02:32           0        5.12       0.265
  WS02006234           JUNCTION      0.00   589.80     0  02:32           0        5.11      -0.211
  WS02006235           JUNCTION      0.00   568.63     0  02:32           0        5.16       0.178
  WS02006238           JUNCTION      0.00   422.31     0  02:20           0        4.09      -0.125
  WS02006239           JUNCTION      0.00   422.08     0  02:20           0        4.06      -0.066
  WS02006240           JUNCTION      0.00   420.05     0  02:20           0        4.03      -0.048
  WS02006242           JUNCTION      0.00   419.71     0  02:20           0        4.02      -0.055
  WS02006243           JUNCTION      0.00   418.85     0  02:30           0        4.01       0.003
  WS02006245           JUNCTION      0.00   418.49     0  02:30           0        4.02       0.243
  WS02006247           JUNCTION      0.00   417.62     0  02:30           0        4.02       0.021
  WS02006248           JUNCTION      0.00   416.49     0  02:20           0        4.02       0.052
  WS02006249           JUNCTION      0.00   459.02     0  00:00           0        4.32       0.189
  WS02006251           JUNCTION      0.08   406.66     0  01:46     0.00222        4.32      -0.022
  WS02006252           JUNCTION      0.00   400.00     0  00:00           0        4.32      -0.018
  WS02006256           JUNCTION      0.00   300.00     0  00:00           0        1.62      -0.691
  WSF200               JUNCTION      0.00   535.39     0  03:13           0        5.28       0.010
  YS02001580           JUNCTION      0.00   135.25     0  01:42           0     0.00453      -0.607
  YS02001583           JUNCTION      0.00   174.66     0  01:41           0      0.0156      -4.611
  YS02001586           JUNCTION    809.71   809.80     0  01:53        2.13        2.14       0.064
  YS02001590           JUNCTION      0.00   317.95     0  02:16           0        1.57      -0.019
  YS02001593           JUNCTION      0.00   318.01     0  02:11           0        1.57      -0.000
  YS02001596           JUNCTION      0.00   317.96     0  01:54           0        1.57      -0.015
  YS02001600           JUNCTION      0.00   318.02     0  01:45           0        1.57       0.007
  YS02001601           JUNCTION   1442.15  1759.96     0  01:51         2.9        4.47       0.012
  YS02001602           JUNCTION      0.00   526.31     0  01:41           0        2.58       0.013
  YS02001605           JUNCTION      0.00   526.14     0  01:41           0        2.41       0.015
  YS02001607           JUNCTION      0.00   525.82     0  01:41           0        2.41       0.076
  YS02001610           JUNCTION      0.00   804.61     0  01:53           0        2.77       0.076
  YS02001613           JUNCTION      0.00   540.64     0  01:41           0        2.14       0.076
  YS02001616           JUNCTION      0.00   540.99     0  01:41           0        2.14       0.012
  YS02001619           JUNCTION   1436.39  1436.39     0  01:53        3.41        5.19      -0.003
  YS02001622           JUNCTION      0.00   974.09     0  01:51           0        4.82      -0.004
  YS02001625           JUNCTION      0.00  1399.13     0  01:53           0        5.13       0.176
  YS02001629           JUNCTION      0.00   923.47     0  01:41           0        3.75       0.011
  YS02001633           JUNCTION   1083.66  1355.39     0  01:43        2.12        5.49       0.058
  YS02001641           JUNCTION      0.00  1354.56     0  01:44           0        5.12       0.050
  YS02001644           JUNCTION    969.21  1764.55     0  01:44        1.84        6.96       0.046
  YS02001647           JUNCTION      0.00  1764.89     0  01:44           0        6.22       0.006
  YS02001649           JUNCTION      0.00  1987.84     0  01:43           0        7.91      -0.001
  YS02001652           JUNCTION      0.00   964.91     0  01:50           0        1.69      -0.071
  YS02001655           JUNCTION      0.15   965.30     0  01:50     0.00443        1.69       0.020
  YS02001658           JUNCTION      0.00   965.12     0  01:50           0        1.69      -0.037
  YS02001661           JUNCTION      0.00   965.86     0  01:50           0        1.69       0.010
  YS02001664           JUNCTION    937.30   937.30     0  01:50        1.69        1.69      -0.012
  YS02001745           JUNCTION    603.58   603.58     0  01:50        1.02        1.02       0.148
  YS02001748           JUNCTION      0.04   619.39     0  01:50      0.0013        1.02      -0.231
  YS02001751           JUNCTION      0.01   618.99     0  01:50    0.000317        1.03       0.073
  YS02001754           JUNCTION      0.26   618.76     0  01:50     0.00749        1.04      -0.126
  YS02001757           JUNCTION      0.00  3255.10     0  01:47           0        12.2       0.017
  YS02001759           JUNCTION    837.35  1356.03     0  01:49         1.4        3.21      -0.010
  YS02001762           JUNCTION      0.00   717.13     0  01:46           0        1.81      -0.002
  YS02001765           JUNCTION      0.00   718.08     0  01:46           0        1.81       0.013
  YS02001767           JUNCTION      0.54   719.44     0  01:46      0.0154        1.81       0.003
  YS02001770           JUNCTION   1182.12  1182.12     0  01:51        2.14        2.18      -0.015
  YS02001774           JUNCTION      0.00   693.53     0  01:50           0       0.414       0.246
  YS02001779           JUNCTION      0.01   693.26     0  01:51    0.000144       0.368      -0.184
  YS02001783           JUNCTION      0.00  1167.62     0  01:48           0        4.79       0.005
  YS02001784           JUNCTION      1.06  1168.21     0  01:48      0.0305        4.82       0.010
  YS02001786           JUNCTION      0.06  1168.58     0  01:48     0.00162        4.82       0.015
  YS02001788           JUNCTION      0.07  1169.71     0  01:48     0.00204        4.82       0.006
  YS02001790           JUNCTION      0.15  1176.75     0  01:47     0.00446        4.82       0.019
  YS02001791           JUNCTION      0.00  1294.15     0  01:46           0        4.82      -0.030
  YS02001793           JUNCTION      0.00  1249.07     0  01:48           0        4.82       0.004
  YS02001882           JUNCTION      0.00    52.80     0  01:43           0      0.0129       4.363
  YS02001884           JUNCTION      0.00    71.62     0  01:42           0       0.049       5.398
  YS02001887           JUNCTION    902.46   902.48     0  01:50        1.46         1.5       0.293
  YS02001890           JUNCTION      0.00   902.59     0  01:50           0        1.45       0.351
  YS02001895           JUNCTION      0.00   517.88     0  01:51           0        1.29       0.137
  YS02001898           JUNCTION      0.00   518.37     0  01:51           0        1.29      -0.011
  YS02001901           JUNCTION      0.00   518.20     0  01:51           0         1.3       0.268
  YS02001904           JUNCTION      0.00   518.14     0  01:51           0         1.3       0.214
  YS02001907           JUNCTION      0.00  2133.64     0  01:50           0        4.48       0.401
  YS02001910           JUNCTION      0.00  1568.24     0  01:50           0        3.18       0.223
  YS02001915           JUNCTION   1048.88  1568.09     0  01:51        2.03        3.22       0.046
  YS02001918           JUNCTION      0.00   521.31     0  01:50           0        1.22       0.005
  YS02001920           JUNCTION      2.87   521.33     0  01:50      0.0827         1.2       0.079
  YS02001923           JUNCTION      0.04   517.36     0  01:50     0.00109        1.11      -0.044
  YS02001926           JUNCTION      0.05   606.84     0  01:45      0.0015        1.09      -0.034
  YS02001929           JUNCTION    511.20   511.20     0  01:52        1.07        1.07      -0.010
  YS02006553           JUNCTION      0.00   792.96     0  02:13           0        2.71       0.436
  YS02006556           JUNCTION      0.00   792.91     0  02:13           0        2.72       0.293
  YS02006558           JUNCTION   1207.37  1207.37     0  01:50        2.14        4.83       0.070
  YS02006561           JUNCTION      0.00  1168.00     0  01:48           0        4.79      -0.001
  YS02163301           JUNCTION      0.00   920.08     0  01:43           0        3.74       0.033
  YS02163601           JUNCTION      0.11  1355.50     0  01:43     0.00317        5.12       0.096
  YS02164001           JUNCTION      0.00  1355.07     0  01:44           0        5.12       0.036
  CC-1                 OUTFALL       0.00   683.00     0  00:00           0        4.01       0.000
  CC-2                 OUTFALL       0.00   683.00     0  00:00           0        3.83       0.000
  JK-1                 OUTFALL       0.00  1000.00     0  00:00           0        2.91       0.000
  JK-2                 OUTFALL       0.00  1000.00     0  00:00           0       0.267       0.000
  WSC                  OUTFALL       0.00   553.74     0  03:15           0         5.8       0.000
  CC-storage           STORAGE       0.00  3255.09     0  01:47           0        14.4      -0.062
  JK-storage           STORAGE       0.00  1225.62     0  01:53           0        4.97       0.088
  
  
  **********************
  Node Surcharge Summary
  **********************
  
  Surcharging occurs when water rises above the top of the highest conduit.
  ---------------------------------------------------------------------
                                               Max. Height   Min. Depth
                                   Hours       Above Crown    Below Rim
  Node                 Type      Surcharged         Meters       Meters
  ---------------------------------------------------------------------
  WS02006109           JUNCTION        2.26          0.358        1.462
  WS02006110           JUNCTION        0.97          0.416        1.434
  WS02006112           JUNCTION        1.15          0.073        1.607
  WS02006228           JUNCTION        2.25          0.488        1.712
  WS02006229           JUNCTION        2.26          0.597        1.853
  WS02006230           JUNCTION        0.97          0.539        1.031
  WS02006231           JUNCTION        1.16          0.784        0.746
  WS02006232           JUNCTION        2.28          0.722        0.758
  WS02006234           JUNCTION        1.41          1.030        0.210
  WS02006235           JUNCTION        2.22          1.277        0.013
  WS02006238           JUNCTION        2.26          1.310        0.120
  WS02006239           JUNCTION        2.24          1.099        0.191
  WS02006240           JUNCTION        2.26          0.966        0.424
  WS02006242           JUNCTION        2.27          0.820        0.000
  WS02006243           JUNCTION        2.25          0.711        0.059
  WS02006245           JUNCTION        2.24          0.625        0.225
  WS02006247           JUNCTION        2.25          0.562        0.198
  WS02006248           JUNCTION        2.24          0.380        0.000
  WS02006249           JUNCTION        2.23          0.390        0.000
  WS02006251           JUNCTION        1.25          0.561        0.619
  WS02006252           JUNCTION        2.37          1.100        0.000
  WS02006256           JUNCTION        5.28          2.050        0.000
  YS02001580           JUNCTION        0.81          0.450        0.000
  YS02001583           JUNCTION        0.82          0.500        0.000
  YS02001586           JUNCTION        1.01          0.510        0.000
  YS02001590           JUNCTION        1.10          0.750        0.000
  YS02001593           JUNCTION        1.10          0.821        0.019
  YS02001596           JUNCTION        1.24          1.060        0.010
  YS02001600           JUNCTION        1.43          1.190        0.000
  YS02001601           JUNCTION        1.69          1.440        0.000
  YS02001602           JUNCTION        1.61          1.270        0.000
  YS02001605           JUNCTION        1.57          1.180        0.000
  YS02001607           JUNCTION        1.12          0.680        0.000
  YS02001610           JUNCTION        1.15          0.680        0.000
  YS02001613           JUNCTION        1.12          0.700        0.000
  YS02001616           JUNCTION        1.07          0.610        0.000
  YS02001619           JUNCTION        1.05          0.610        0.000
  YS02001622           JUNCTION        1.05          0.620        0.000
  YS02001625           JUNCTION        1.27          0.780        0.000
  YS02001629           JUNCTION        1.00          0.470        0.000
  YS02001633           JUNCTION        1.31          0.996        0.064
  YS02001641           JUNCTION        1.26          0.951        0.149
  YS02001644           JUNCTION        1.24          0.920        0.000
  YS02001647           JUNCTION        1.01          0.785        0.115
  YS02001649           JUNCTION        1.17          1.040        0.010
  YS02001652           JUNCTION        0.94          0.941        0.189
  YS02001655           JUNCTION        0.72          0.974        0.226
  YS02001658           JUNCTION        0.36          0.985        0.315
  YS02001661           JUNCTION        0.09          0.372        1.018
  YS02001748           JUNCTION        0.27          0.733        0.457
  YS02001751           JUNCTION        0.54          0.763        0.437
  YS02001754           JUNCTION        0.84          0.759        0.391
  YS02001757           JUNCTION        1.26          1.048        0.162
  YS02001759           JUNCTION        1.15          1.025        0.185
  YS02001762           JUNCTION        1.12          1.004        0.146
  YS02001765           JUNCTION        1.06          0.978        0.122
  YS02001767           JUNCTION        1.02          0.945        0.085
  YS02001770           JUNCTION        0.98          0.920        0.000
  YS02001774           JUNCTION        1.10          1.001        0.049
  YS02001779           JUNCTION        0.83          0.680        0.000
  YS02001783           JUNCTION        0.69          0.511        1.089
  YS02001784           JUNCTION        0.66          0.376        1.114
  YS02001786           JUNCTION        0.54          0.119        1.311
  YS02001882           JUNCTION        0.62          0.673        0.157
  YS02001884           JUNCTION        0.64          0.704        0.166
  YS02001887           JUNCTION        0.68          0.783        0.167
  YS02001890           JUNCTION        0.70          0.760        0.000
  YS02001895           JUNCTION        0.61          0.566        0.184
  YS02001898           JUNCTION        0.61          0.538        0.202
  YS02001901           JUNCTION        0.66          0.677        0.193
  YS02001904           JUNCTION        0.65          0.641        0.209
  YS02001907           JUNCTION        0.93          0.950        0.000
  YS02001910           JUNCTION        0.73          0.966        0.134
  YS02001915           JUNCTION        0.62          0.913        0.087
  YS02001918           JUNCTION        0.53          0.810        0.000
  YS02001920           JUNCTION        0.54          1.140        0.000
  YS02001923           JUNCTION        0.16          0.820        0.000
  YS02001926           JUNCTION        0.20          0.900        0.000
  YS02001929           JUNCTION        0.01          0.780        0.000
  YS02006553           JUNCTION        0.96          0.982        0.208
  YS02006556           JUNCTION        0.83          0.928        0.422
  YS02006558           JUNCTION        0.82          0.915        0.485
  YS02006561           JUNCTION        0.49          0.196        0.954
  YS02163301           JUNCTION        1.29          0.917        0.113
  YS02163601           JUNCTION        1.35          1.037        0.043
  YS02164001           JUNCTION        1.26          0.951        0.149
  
  
  *********************
  Node Flooding Summary
  *********************
  
  Flooding refers to all water that overflows a node, whether it ponds or not.
  --------------------------------------------------------------------------
                                                             Total   Maximum
                                 Maximum   Time of Max       Flood    Ponded
                        Hours       Rate    Occurrence      Volume     Depth
  Node                 Flooded       LPS   days hr:min    10^6 ltr    Meters
  --------------------------------------------------------------------------
  WS02006242              0.01     15.89      0  02:32       0.000     0.000
  WS02006248              0.02     21.58      0  02:15       0.001     0.000
  WS02006249              1.22     98.17      0  01:46       0.291     0.000
  WS02006252              0.01    245.63      0  00:00       0.000     0.000
  WS02006256              1.49    293.19      0  00:00       0.522     0.000
  YS02001580              0.01    120.39      0  01:42       0.000     0.000
  YS02001583              0.01    102.17      0  01:41       0.000     0.000
  YS02001586              0.65    492.42      0  01:53       0.552     0.000
  YS02001590              0.01      1.10      0  01:42       0.000     0.000
  YS02001600              0.01      1.25      0  01:42       0.000     0.000
  YS02001601              0.93   1362.09      0  01:51       1.890     0.000
  YS02001602              0.82     61.97      0  02:00       0.167     0.000
  YS02001605              0.01      5.38      0  01:41       0.000     0.000
  YS02001607              0.01     26.32      0  01:41       0.000     0.000
  YS02001610              0.72    804.27      0  01:53       0.997     0.000
  YS02001613              0.01     21.91      0  01:41       0.000     0.000
  YS02001616              0.01     32.17      0  01:41       0.000     0.000
  YS02001619              0.01     20.01      0  01:41       0.000     0.000
  YS02001622              0.01     97.74      0  01:41       0.000     0.000
  YS02001625              0.69   1399.03      0  01:53       1.745     0.000
  YS02001629              0.16    217.97      0  01:48       0.066     0.000
  YS02001644              0.29   1271.16      0  01:50       0.730     0.000
  YS02001770              0.01      8.89      0  01:46       0.000     0.000
  YS02001779              0.25    693.07      0  01:50       0.349     0.000
  YS02001890              0.22    386.33      0  01:50       0.154     0.000
  YS02001907              0.46   2133.01      0  01:50       1.777     0.000
  YS02001918              0.01    200.15      0  01:45       0.003     0.000
  YS02001920              0.01     34.53      0  01:45       0.000     0.000
  YS02001923              0.01    119.26      0  01:45       0.000     0.000
  YS02001926              0.01    195.40      0  01:45       0.001     0.000
  YS02001929              0.01     61.03      0  01:45       0.000     0.000
  
  
  **********************
  Storage Volume Summary
  **********************
  
  ------------------------------------------------------------------------------------------------
                         Average    Avg   Evap  Exfil     Maximum    Max    Time of Max    Maximum
                          Volume   Pcnt   Pcnt   Pcnt      Volume   Pcnt     Occurrence    Outflow
  Storage Unit           1000 m³   Full   Loss   Loss     1000 m³   Full    days hr:min        LPS
  ------------------------------------------------------------------------------------------------
  CC-storage               2.883   45.0    0.0    0.0       5.155   80.4       0  02:27    1783.53
  JK-storage               0.169   57.9    0.0    0.0       0.213   73.0       0  02:10    2300.00
  
  
  ***********************
  Outfall Loading Summary
  ***********************
  
  -----------------------------------------------------------
                         Flow       Avg       Max       Total
                         Freq      Flow      Flow      Volume
  Outfall Node           Pcnt       LPS       LPS    10^6 ltr
  -----------------------------------------------------------
  CC-1                  22.11    683.00    683.00       4.012
  CC-2                  21.10    683.00    683.00       3.832
  JK-1                  12.85   1000.00   1000.00       2.915
  JK-2                   0.84   1000.00   1000.00       0.267
  WSC                   99.96    267.42    553.74       5.796
  -----------------------------------------------------------
  System                31.37   3633.42   3366.23      16.822
  
  
  ********************
  Link Flow Summary
  ********************
  
  -----------------------------------------------------------------------------
                                 Maximum  Time of Max   Maximum    Max/    Max/
                                  |Flow|   Occurrence   |Veloc|    Full    Full
  Link                 Type          LPS  days hr:min     m/sec    Flow   Depth
  -----------------------------------------------------------------------------
  1                    CONDUIT    553.74     0  03:15      2.82    0.19    0.30
  WS02003060WS02003069 CONDUIT    551.94     0  03:13      1.64    0.22    0.34
  WS02003066WSF200     CONDUIT    535.39     0  03:13      2.85    0.09    0.22
  WS02003067WS02003066 CONDUIT    535.37     0  03:12      1.21    0.17    0.42
  WS02003069WS02003072 CONDUIT    552.16     0  03:14      1.37    0.27    0.39
  WS02003072WS02003073 CONDUIT    552.07     0  03:14      1.43    1.19    0.37
  WS02004401WS02004402 CONDUIT    538.37     0  02:10      0.98    0.65    0.86
  WS02004402WS02004403 CONDUIT    537.28     0  02:11      0.97    0.77    0.88
  WS02004403WS02004404 CONDUIT    537.23     0  02:11      0.92    0.39    0.93
  WS02004404WS02004405 CONDUIT    536.93     0  02:11      1.08    5.26    0.96
  WS02004405WS02004406 CONDUIT    537.11     0  02:11      0.99    1.06    0.96
  WS02004406WS02004407 CONDUIT    536.35     0  02:11      1.04    0.24    0.63
  WS02004407WS02004409 CONDUIT    535.95     0  03:11      1.56    0.19    0.48
  WS02004409WS02004410 CONDUIT    535.78     0  03:11      1.05    0.69    0.67
  WS02004410WS02004411 CONDUIT    535.62     0  03:12      1.00    0.73    0.69
  WS02004411WS02004412 CONDUIT    535.50     0  03:12      0.94    0.76    0.69
  WS02004412WS02004413 CONDUIT    535.40     0  03:12      0.82    0.36    0.78
  WS02004413WS02003067 CONDUIT    535.35     0  03:12      1.11    0.23    0.59
  WS02006109WS02006110 CONDUIT    564.70     0  02:58      1.13    1.09    1.00
  WS02006110WS02006113 CONDUIT    569.94     0  02:58      1.38    0.52    0.79
  WS02006111WS02006112 CONDUIT    545.99     0  03:00      1.81    0.26    0.67
  WS02006112WS02006115 CONDUIT    549.12     0  02:29      0.87    0.32    0.87
  WS02006113WS02006111 CONDUIT    566.10     0  03:00      2.47    0.68    0.46
  WS02006115WS02006116 CONDUIT    541.81     0  02:10      1.10    0.70    0.76
  WS02006116WS02004401 CONDUIT    538.97     0  02:10      0.98    0.74    0.84
  WS02006228WS02006109 CONDUIT    562.16     0  02:16      1.12    2.46    1.00
  WS02006229WS02006228 CONDUIT    561.47     0  02:16      1.14    1.86    1.00
  WS02006230WS02006229 CONDUIT    561.74     0  02:16      1.46   12.50    1.00
  WS02006231WS02006230 CONDUIT    579.54     0  01:55      1.58    8.79    1.00
  WS02006232WS02006231 CONDUIT    606.74     0  02:32      1.59    1.27    1.00
  WS02006234WS02006232 CONDUIT    602.56     0  02:32      1.57    1.22    1.00
  WS02006235WS02006234 CONDUIT    589.80     0  02:32      1.53    6.22    1.00
  WS02006238WS02006235 CONDUIT    423.38     0  02:25      1.56    0.95    1.00
  WS02006239WS02006238 CONDUIT    422.31     0  02:20      1.10    1.35    1.00
  WS02006240WS02006239 CONDUIT    422.08     0  02:20      1.24    1.33    1.00
  WS02006242WS02006240 CONDUIT    420.05     0  02:20      1.13    1.67    1.00
  WS02006243WS02006242 CONDUIT    419.71     0  02:20      1.40    0.90    1.00
  WS02006245WS02006243 CONDUIT    418.85     0  02:30      1.45    1.24    1.00
  WS02006247WS02006245 CONDUIT    418.49     0  02:30      1.43    3.32    1.00
  WS02006248WS02006247 CONDUIT    417.62     0  02:30      1.44    0.91    1.00
  WS02006249WS02006248 CONDUIT    416.49     0  02:20      1.36    2.28    1.00
  WS02006251WS02006249 CONDUIT    459.02     0  00:00      1.99    1.32    1.00
  WS02006252WS02006251 CONDUIT    406.58     0  01:46     24.61    1.49    1.00
  WS02006256WS02006235 CONDUIT    289.22     0  01:37      4.23    3.06    1.00
  WSF200WS02003060     CONDUIT    535.44     0  03:13      2.06    0.12    0.28
  YS02001580YS02001583 CONDUIT    135.25     0  01:42      0.69    0.52    1.00
  YS02001583YS02001586 CONDUIT    161.88     0  01:41      0.70    0.24    1.00
  YS02001586YS02001590 CONDUIT    317.95     0  02:16      1.25    0.56    1.00
  YS02001590YS02001593 CONDUIT    318.01     0  02:11      1.12    2.00    1.00
  YS02001593YS02001596 CONDUIT    317.96     0  01:54      1.71    0.50    1.00
  YS02001596YS02001600 CONDUIT    318.02     0  01:45      1.24    0.62    1.00
  YS02001600YS02001601 CONDUIT    318.00     0  01:52      1.12    0.55    1.00
  YS02001601YS02001602 CONDUIT    526.31     0  01:41      1.86    1.90    1.00
  YS02001602YS02001605 CONDUIT    526.14     0  01:41      1.86   11.13    1.00
  YS02001605YS02001607 CONDUIT    525.82     0  01:41      1.86    2.88    1.00
  YS02001607YS02001610 CONDUIT    535.67     0  01:41      0.68    0.51    1.00
  YS02001610YS02001613 CONDUIT    540.64     0  01:41      0.69    0.62    1.00
  YS02001613YS02001616 CONDUIT    540.99     0  01:41      0.70    0.46    1.00
  YS02001616YS02001619 CONDUIT    502.52     0  01:41      0.68    0.87    1.00
  YS02001619YS02001622 CONDUIT    974.09     0  01:51      1.24    1.44    1.00
  YS02001622YS02001625 CONDUIT    975.15     0  01:51      1.24    0.52    1.00
  YS02001625YS02001629 CONDUIT    923.47     0  01:41      1.18    0.44    1.00
  YS02001629YS02163301 CONDUIT    920.08     0  01:43      1.17    1.13    1.00
  YS02001633YS02163601 CONDUIT   1355.39     0  01:43      1.73    1.42    1.00
  YS02001641YS02001644 CONDUIT   1354.33     0  01:44      1.72    4.38    1.00
  YS02001644YS02001647 CONDUIT   1764.89     0  01:44      2.26    1.04    1.00
  YS02001647YS02001649 CONDUIT   1772.31     0  01:44      2.32    0.94    1.00
  YS02001649YS02001757 CONDUIT   1952.92     0  01:44      2.49    1.19    1.00
  YS02001652YS02001649 CONDUIT    966.45     0  01:50      1.23    0.48    1.00
  YS02001655YS02001652 CONDUIT    964.91     0  01:50      1.40    0.47    1.00
  YS02001658YS02001655 CONDUIT    965.15     0  01:50      1.91    0.41    1.00
  YS02001661YS02001658 CONDUIT    965.12     0  01:50      2.31    0.38    1.00
  YS02001664YS02001661 CONDUIT    965.86     0  01:50      2.30    0.30    0.83
  YS02001745YS02001748 CONDUIT    619.34     0  01:50      2.18    0.24    0.93
  YS02001748YS02001751 CONDUIT    618.98     0  01:50      1.71    0.31    1.00
  YS02001751YS02001754 CONDUIT    618.50     0  01:50      1.48    0.30    1.00
  YS02001754YS02001757 CONDUIT    618.74     0  01:50      0.79    0.25    1.00
  YS02001757CaochengTiaoxuchi CONDUIT   3255.09     0  01:47      4.14    1.41    1.00
  YS02001759YS02001757 CONDUIT   1356.85     0  01:49      1.73    0.96    1.00
  YS02001762YS02001759 CONDUIT    713.48     0  01:46      0.91    0.82    1.00
  YS02001765YS02001762 CONDUIT    717.13     0  01:46      0.91    0.67    1.00
  YS02001767YS02001765 CONDUIT    718.08     0  01:46      0.91    0.90    1.00
  YS02001770YS02001767 CONDUIT    718.90     0  01:46      0.92    2.85    1.00
  YS02001774YS02001770 CONDUIT    693.53     0  01:50      0.88    0.44    1.00
  YS02001779YS02001774 CONDUIT    693.26     0  01:51      0.88    0.35    1.00
  YS02001783YS02001784 CONDUIT   1167.15     0  01:48      2.32    1.61    1.00
  YS02001784YS02001785 CONDUIT   1168.52     0  01:48      2.32    2.72    1.00
  YS02001786YS02001788 CONDUIT   1169.64     0  01:48      2.49    2.25    0.89
  YS02001788YS02001790 CONDUIT   1176.59     0  01:47      2.72    0.87    0.84
  YS02001790YS02001791 CONDUIT   1294.15     0  01:46      3.44    1.41    0.70
  YS02001791YS02001793 CONDUIT   1249.07     0  01:48      6.61    0.54    0.45
  YS02001793JiankangQianchi CONDUIT   1225.62     0  01:53      2.35    0.10    0.65
  YS02001882YS02001884 CONDUIT     52.80     0  01:43      0.16    0.06    1.00
  YS02001884YS02001887 CONDUIT     71.62     0  01:42      0.12    0.10    1.00
  YS02001887YS02001890 CONDUIT    902.59     0  01:50      1.15    1.54    1.00
  YS02001890YS02001895 CONDUIT    517.88     0  01:51      0.66    0.24    1.00
  YS02001895YS02001898 CONDUIT    518.37     0  01:51      0.66    0.90    1.00
  YS02001898YS02001901 CONDUIT    518.20     0  01:51      0.66    0.33    1.00
  YS02001901YS02001904 CONDUIT    518.14     0  01:51      0.66    0.80    1.00
  YS02001904YS02001907 CONDUIT    518.09     0  01:57      0.66    0.18    1.00
  YS02001907YS02006553 CONDUIT    792.96     0  02:13      0.88    0.93    1.00
  YS02001910YS02001907 CONDUIT   1568.06     0  01:51      2.00    0.88    1.00
  YS02001915YS02001910 CONDUIT   1568.24     0  01:50      2.00    0.78    1.00
  YS02001918YS02001915 CONDUIT    521.26     0  01:50      0.66    0.29    1.00
  YS02001920YS02001918 CONDUIT    521.31     0  01:50      0.66    0.50    1.00
  YS02001923YS02001920 CONDUIT    518.46     0  01:50      0.70    0.23    1.00
  YS02001926YS02001923 CONDUIT    517.32     0  01:50      0.96    0.74    1.00
  YS02001929YS02001926 CONDUIT    516.68     0  01:50      1.13    0.25    1.00
  YS02006553YS02006556 CONDUIT    792.91     0  02:13      1.01    0.68    1.00
  YS02006556YS02006558 CONDUIT    794.20     0  02:13      1.01    0.63    1.00
  YS02006558YS02006561 CONDUIT   1168.00     0  01:48      4.13    2.58    1.00
  YS02006561YS02001783 CONDUIT   1167.62     0  01:48      2.32    0.60    1.00
  YS02163301YS02001633 CONDUIT    921.81     0  01:43      1.17    0.87    1.00
  YS02163601YS02164001 CONDUIT   1355.07     0  01:44      1.73    1.20    1.00
  YS02164001YS02001641 CONDUIT   1354.56     0  01:44      1.72    1.85    1.00
  CC-R1                PUMP       683.00     0  00:00              1.00
  CC-R2                PUMP       683.00     0  00:00              1.00
  CC-S1                PUMP       200.00     0  00:00              1.00
  CC-S2                PUMP       200.00     0  00:00              1.00
  JK-R1                PUMP      1000.00     0  00:00              1.00
  JK-R2                PUMP      1000.00     0  00:00              1.00
  JK-S                 PUMP       300.00     0  00:00              1.00
  
  
  ***************************
  Flow Classification Summary
  ***************************
  
  -------------------------------------------------------------------------------------
                      Adjusted    ---------- Fraction of Time in Flow Class ---------- 
                       /Actual         Up    Down  Sub   Sup   Up    Down  Norm  Inlet 
  Conduit               Length    Dry  Dry   Dry   Crit  Crit  Crit  Crit  Ltd   Ctrl  
  -------------------------------------------------------------------------------------
  1                       1.00   0.00  0.00  0.00  0.00  1.00  0.00  0.00  0.43  0.00
  WS02003060WS02003069    1.00   0.00  0.00  0.00  0.99  0.01  0.00  0.00  0.68  0.00
  WS02003066WSF200        1.00   0.13  0.00  0.00  0.00  0.87  0.00  0.00  0.74  0.00
  WS02003067WS02003066    1.00   0.10  0.02  0.00  0.88  0.00  0.00  0.00  0.00  0.00
  WS02003069WS02003072    1.00   0.00  0.00  0.00  0.99  0.01  0.00  0.00  0.70  0.00
  WS02003072WS02003073    1.00   0.00  0.00  0.00  0.00  0.00  0.00  1.00  0.00  0.00
  WS02004401WS02004402    1.00   0.02  0.00  0.00  0.98  0.00  0.00  0.00  0.00  0.00
  WS02004402WS02004403    1.00   0.02  0.00  0.00  0.97  0.00  0.00  0.00  0.00  0.00
  WS02004403WS02004404    1.00   0.00  0.03  0.00  0.97  0.00  0.00  0.00  0.00  0.00
  WS02004404WS02004405    1.00   0.00  0.00  0.00  1.00  0.00  0.00  0.00  0.00  0.00
  WS02004405WS02004406    1.00   0.00  0.00  0.00  1.00  0.00  0.00  0.00  0.00  0.00
  WS02004406WS02004407    1.00   0.00  0.05  0.00  0.95  0.00  0.00  0.00  0.00  0.00
  WS02004407WS02004409    1.00   0.05  0.00  0.00  0.94  0.01  0.00  0.00  0.94  0.00
  WS02004409WS02004410    1.00   0.05  0.00  0.00  0.95  0.00  0.00  0.00  0.03  0.00
  WS02004410WS02004411    1.00   0.05  0.00  0.00  0.95  0.00  0.00  0.00  0.01  0.00
  WS02004411WS02004412    1.00   0.05  0.00  0.00  0.95  0.00  0.00  0.00  0.00  0.00
  WS02004412WS02004413    1.00   0.05  0.00  0.00  0.94  0.00  0.00  0.00  0.01  0.00
  WS02004413WS02003067    1.00   0.06  0.04  0.00  0.00  0.00  0.90  0.00  0.00  0.00
  WS02006109WS02006110    1.00   0.00  0.01  0.00  0.98  0.00  0.01  0.00  0.00  0.00
  WS02006110WS02006113    1.00   0.01  0.01  0.00  0.98  0.00  0.00  0.00  0.00  0.00
  WS02006111WS02006112    1.00   0.02  0.00  0.00  0.98  0.00  0.00  0.00  0.98  0.00
  WS02006112WS02006115    1.00   0.02  0.00  0.00  0.97  0.00  0.00  0.00  0.00  0.00
  WS02006113WS02006111    1.00   0.02  0.00  0.00  0.00  0.98  0.00  0.00  0.13  0.00
  WS02006115WS02006116    1.00   0.02  0.00  0.00  0.97  0.00  0.00  0.01  0.00  0.00
  WS02006116WS02004401    1.00   0.02  0.00  0.00  0.98  0.00  0.00  0.00  0.00  0.00
  WS02006228WS02006109    1.00   0.00  0.00  0.00  1.00  0.00  0.00  0.00  0.00  0.00
  WS02006229WS02006228    1.00   0.00  0.00  0.00  0.99  0.00  0.00  0.01  0.00  0.00
  WS02006230WS02006229    1.00   0.00  0.00  0.00  0.99  0.00  0.00  0.01  0.01  0.00
  WS02006231WS02006230    1.00   0.00  0.00  0.00  0.29  0.00  0.71  0.00  0.00  0.00
  WS02006232WS02006231    1.00   0.00  0.00  0.00  0.98  0.00  0.01  0.00  0.00  0.00
  WS02006234WS02006232    1.00   0.00  0.00  0.00  1.00  0.00  0.00  0.00  0.15  0.00
  WS02006235WS02006234    1.00   0.00  0.00  0.00  0.78  0.00  0.22  0.00  0.00  0.00
  WS02006238WS02006235    1.00   0.00  0.00  0.00  1.00  0.00  0.00  0.00  0.00  0.00
  WS02006239WS02006238    1.00   0.00  0.00  0.00  1.00  0.00  0.00  0.00  0.34  0.00
  WS02006240WS02006239    1.00   0.00  0.00  0.00  0.60  0.00  0.00  0.40  0.03  0.00
  WS02006242WS02006240    1.00   0.00  0.00  0.00  0.99  0.00  0.01  0.00  0.00  0.00
  WS02006243WS02006242    1.00   0.00  0.00  0.00  0.99  0.00  0.00  0.01  0.51  0.00
  WS02006245WS02006243    1.00   0.00  0.00  0.00  0.66  0.00  0.00  0.34  0.02  0.00
  WS02006247WS02006245    1.00   0.00  0.00  0.00  0.97  0.00  0.00  0.03  0.00  0.00
  WS02006248WS02006247    1.00   0.00  0.00  0.00  0.99  0.00  0.00  0.01  0.23  0.00
  WS02006249WS02006248    1.00   0.00  0.00  0.00  0.48  0.00  0.52  0.00  0.00  0.00
  WS02006251WS02006249    1.00   0.00  0.00  0.00  1.00  0.00  0.00  0.00  0.53  0.00
  WS02006252WS02006251    1.00   0.00  0.55  0.00  0.16  0.00  0.30  0.00  0.00  0.00
  WS02006256WS02006235    1.00   0.00  0.00  0.00  0.99  0.01  0.00  0.00  0.00  0.00
  WSF200WS02003060        1.00   0.00  0.13  0.00  0.32  0.55  0.00  0.00  0.45  0.00
  YS02001580YS02001583    1.00   0.21  0.56  0.00  0.23  0.00  0.00  0.00  0.66  0.00
  YS02001583YS02001586    1.00   0.41  0.31  0.00  0.28  0.00  0.00  0.00  0.66  0.00
  YS02001586YS02001590    1.00   0.13  0.00  0.00  0.44  0.04  0.00  0.39  0.34  0.00
  YS02001590YS02001593    1.00   0.13  0.01  0.00  0.16  0.00  0.71  0.00  0.00  0.00
  YS02001593YS02001596    1.00   0.13  0.00  0.00  0.18  0.01  0.00  0.68  0.02  0.00
  YS02001596YS02001600    1.00   0.13  0.00  0.00  0.23  0.01  0.00  0.63  0.04  0.00
  YS02001600YS02001601    1.00   0.13  0.01  0.00  0.86  0.00  0.00  0.00  0.59  0.00
  YS02001601YS02001602    1.00   0.13  0.01  0.00  0.87  0.00  0.00  0.00  0.00  0.00
  YS02001602YS02001605    1.00   0.13  0.00  0.00  0.87  0.00  0.00  0.00  0.00  0.00
  YS02001605YS02001607    1.00   0.13  0.00  0.00  0.87  0.00  0.00  0.00  0.00  0.00
  YS02001607YS02001610    1.00   0.13  0.01  0.00  0.86  0.00  0.00  0.00  0.01  0.00
  YS02001610YS02001613    1.00   0.13  0.00  0.00  0.87  0.00  0.00  0.00  0.00  0.00
  YS02001613YS02001616    1.00   0.13  0.00  0.00  0.87  0.00  0.00  0.00  0.00  0.00
  YS02001616YS02001619    1.00   0.13  0.00  0.00  0.87  0.00  0.00  0.00  0.00  0.00
  YS02001619YS02001622    1.00   0.13  0.00  0.00  0.87  0.00  0.00  0.00  0.28  0.00
  YS02001622YS02001625    1.00   0.13  0.00  0.00  0.87  0.00  0.00  0.00  0.03  0.00
  YS02001625YS02001629    1.00   0.13  0.04  0.00  0.20  0.00  0.63  0.00  0.00  0.00
  YS02001629YS02163301    1.00   0.15  0.01  0.00  0.84  0.00  0.00  0.00  0.00  0.00
  YS02001633YS02163601    1.00   0.00  0.01  0.00  0.99  0.00  0.00  0.00  0.14  0.00
  YS02001641YS02001644    1.00   0.00  0.01  0.00  0.99  0.00  0.00  0.00  0.00  0.00
  YS02001644YS02001647    1.00   0.00  0.16  0.00  0.84  0.00  0.00  0.00  0.00  0.00
  YS02001647YS02001649    1.00   0.00  0.16  0.00  0.59  0.25  0.00  0.00  0.55  0.00
  YS02001649YS02001757    1.00   0.00  0.00  0.00  0.90  0.10  0.00  0.00  0.41  0.00
  YS02001652YS02001649    1.00   0.00  0.00  0.00  0.97  0.03  0.00  0.00  0.70  0.00
  YS02001655YS02001652    1.00   0.00  0.00  0.00  0.22  0.01  0.00  0.77  0.03  0.00
  YS02001658YS02001655    1.00   0.00  0.14  0.00  0.71  0.15  0.00  0.00  0.63  0.00
  YS02001661YS02001658    1.00   0.14  0.00  0.00  0.55  0.32  0.00  0.00  0.67  0.00
  YS02001664YS02001661    1.00   0.13  0.00  0.00  0.78  0.09  0.00  0.00  0.84  0.00
  YS02001745YS02001748    1.00   0.00  0.00  0.00  0.15  0.01  0.00  0.84  0.05  0.00
  YS02001748YS02001751    1.00   0.00  0.00  0.00  0.87  0.13  0.00  0.00  0.74  0.00
  YS02001751YS02001754    1.00   0.00  0.00  0.00  0.21  0.00  0.00  0.79  0.02  0.00
  YS02001754YS02001757    1.00   0.00  0.00  0.00  1.00  0.00  0.00  0.00  0.77  0.00
  YS02001757CaochengTiaoxuchi    1.00   0.00  0.00  0.00  1.00  0.00  0.00  0.00  0.52  0.00
  YS02001759YS02001757    1.00   0.00  0.00  0.00  0.99  0.01  0.00  0.00  0.50  0.00
  YS02001762YS02001759    1.00   0.00  0.00  0.00  1.00  0.00  0.00  0.00  0.05  0.00
  YS02001765YS02001762    1.00   0.00  0.00  0.00  1.00  0.00  0.00  0.00  0.63  0.00
  YS02001767YS02001765    1.00   0.00  0.00  0.00  1.00  0.00  0.00  0.00  0.01  0.00
  YS02001770YS02001767    1.00   0.00  0.00  0.00  1.00  0.00  0.00  0.00  0.00  0.00
  YS02001774YS02001770    1.00   0.00  0.13  0.00  0.71  0.00  0.16  0.00  0.02  0.00
  YS02001779YS02001774    1.00   0.00  0.00  0.00  1.00  0.00  0.00  0.00  0.74  0.00
  YS02001783YS02001784    1.00   0.00  0.17  0.00  0.83  0.00  0.00  0.00  0.55  0.00
  YS02001784YS02001785    1.00   0.00  0.00  0.00  1.00  0.00  0.00  0.00  0.16  0.00
  YS02001786YS02001788    1.00   0.00  0.00  0.00  0.79  0.21  0.00  0.00  0.00  0.00
  YS02001788YS02001790    1.00   0.00  0.00  0.00  0.21  0.78  0.00  0.00  0.78  0.00
  YS02001790YS02001791    1.00   0.00  0.00  0.00  0.01  0.99  0.00  0.00  0.16  0.00
  YS02001791YS02001793    1.00   0.00  0.00  0.00  0.00  1.00  0.00  0.00  0.02  0.00
  YS02001793JiankangQianchi    1.00   0.00  0.00  0.00  0.99  0.01  0.00  0.00  0.93  0.00
  YS02001882YS02001884    1.00   0.15  0.01  0.00  0.85  0.00  0.00  0.00  0.00  0.00
  YS02001884YS02001887    1.00   0.06  0.05  0.00  0.89  0.00  0.00  0.00  0.00  0.00
  YS02001887YS02001890    1.00   0.00  0.00  0.00  0.97  0.00  0.03  0.00  0.00  0.00
  YS02001890YS02001895    1.00   0.00  0.15  0.00  0.85  0.00  0.00  0.00  0.00  0.00
  YS02001895YS02001898    1.00   0.15  0.00  0.00  0.83  0.00  0.01  0.00  0.00  0.00
  YS02001898YS02001901    1.00   0.16  0.00  0.00  0.84  0.00  0.00  0.00  0.01  0.00
  YS02001901YS02001904    1.00   0.16  0.00  0.00  0.84  0.00  0.00  0.00  0.00  0.00
  YS02001904YS02001907    1.00   0.00  0.15  0.00  0.84  0.00  0.00  0.00  0.00  0.00
  YS02001907YS02006553    1.00   0.00  0.02  0.00  0.98  0.00  0.00  0.00  0.00  0.00
  YS02001910YS02001907    1.00   0.00  0.00  0.00  0.97  0.00  0.00  0.03  0.12  0.00
  YS02001915YS02001910    1.00   0.00  0.00  0.00  0.97  0.03  0.00  0.00  0.13  0.00
  YS02001918YS02001915    1.00   0.00  0.01  0.00  0.98  0.02  0.00  0.00  0.72  0.00
  YS02001920YS02001918    1.00   0.00  0.01  0.00  0.99  0.00  0.00  0.00  0.00  0.00
  YS02001923YS02001920    1.00   0.00  0.00  0.00  1.00  0.00  0.00  0.00  0.90  0.00
  YS02001926YS02001923    1.00   0.00  0.07  0.00  0.08  0.00  0.85  0.00  0.00  0.00
  YS02001929YS02001926    1.00   0.00  0.13  0.00  0.87  0.00  0.00  0.00  0.80  0.00
  YS02006553YS02006556    1.00   0.01  0.00  0.00  0.99  0.00  0.00  0.00  0.03  0.00
  YS02006556YS02006558    1.00   0.00  0.00  0.00  1.00  0.00  0.00  0.00  0.00  0.00
  YS02006558YS02006561    1.00   0.17  0.00  0.00  0.07  0.76  0.00  0.00  0.18  0.00
  YS02006561YS02001783    1.00   0.17  0.00  0.00  0.11  0.72  0.00  0.00  0.66  0.00
  YS02163301YS02001633    1.00   0.00  0.14  0.00  0.86  0.00  0.00  0.00  0.00  0.00
  YS02163601YS02164001    1.00   0.00  0.08  0.00  0.92  0.00  0.00  0.00  0.00  0.00
  YS02164001YS02001641    1.00   0.01  0.07  0.00  0.92  0.00  0.00  0.00  0.05  0.00
  
  
  *************************
  Conduit Surcharge Summary
  *************************
  
  ----------------------------------------------------------------------------
                                                           Hours        Hours 
                         --------- Hours Full --------   Above Full   Capacity
  Conduit                Both Ends  Upstream  Dnstream   Normal Flow   Limited
  ----------------------------------------------------------------------------
  WS02003072WS02003073        0.01      0.01      0.01      1.43         0.01
  WS02004404WS02004405        0.01      0.01      0.01      3.60         0.01
  WS02004405WS02004406        0.01      0.01      0.01      1.06         0.01
  WS02006109WS02006110        0.97      0.97      2.28      1.12         0.01
  WS02006110WS02006113        0.01      0.01      2.27      0.01         0.01
  WS02006111WS02006112        0.01      0.01      2.38      0.01         0.01
  WS02006112WS02006115        0.01      0.01      1.15      0.01         0.01
  WS02006228WS02006109        2.26      2.28      2.26      2.70         2.26
  WS02006229WS02006228        2.25      2.26      2.25      2.41         2.24
  WS02006230WS02006229        2.30      2.35      2.30      4.18         2.30
  WS02006231WS02006230        0.97      0.97      1.22      3.86         0.01
  WS02006232WS02006231        1.15      1.15      2.28      1.22         0.01
  WS02006234WS02006232        2.20      2.20      2.28      1.20         1.18
  WS02006235WS02006234        1.40      1.41      2.21      3.75         0.02
  WS02006238WS02006235        2.23      2.23      2.28      0.01         0.01
  WS02006239WS02006238        2.26      2.27      2.26      2.28         2.04
  WS02006240WS02006239        2.24      2.26      2.24      2.28         1.91
  WS02006242WS02006240        2.26      2.26      2.28      2.38         0.01
  WS02006243WS02006242        2.25      2.25      2.27      0.01         0.06
  WS02006245WS02006243        2.25      2.25      2.25      1.25         1.32
  WS02006247WS02006245        2.24      2.25      2.24      3.58         2.22
  WS02006248WS02006247        2.24      2.24      2.25      0.01         0.06
  WS02006249WS02006248        2.23      2.24      2.23      3.56         0.01
  WS02006251WS02006249        2.23      2.23      2.23      2.34         2.16
  WS02006252WS02006251        2.37      2.37      2.37      2.37         0.01
  WS02006256WS02006235        3.72      3.77      5.24      1.50         0.01
  YS02001580YS02001583        0.81      0.81      0.88      0.01         0.01
  YS02001583YS02001586        0.82      0.82      1.01      0.01         0.01
  YS02001586YS02001590        1.02      1.02      1.10      0.01         0.01
  YS02001590YS02001593        1.10      1.10      1.13      1.16         0.01
  YS02001593YS02001596        1.12      1.12      1.24      0.01         0.01
  YS02001596YS02001600        1.30      1.30      1.43      0.01         0.01
  YS02001600YS02001601        1.48      1.48      1.69      0.01         0.01
  YS02001601YS02001602        1.61      1.61      1.72      1.41         0.01
  YS02001602YS02001605        1.57      1.57      1.61      2.40         0.01
  YS02001605YS02001607        1.54      1.57      1.54      1.65         1.54
  YS02001607YS02001610        1.12      1.12      1.15      0.01         0.01
  YS02001610YS02001613        1.12      1.12      1.15      0.01         0.01
  YS02001613YS02001616        1.07      1.07      1.12      0.01         0.01
  YS02001616YS02001619        1.05      1.05      1.07      0.01         0.04
  YS02001619YS02001622        1.05      1.05      1.05      1.04         0.94
  YS02001622YS02001625        1.05      1.05      1.27      0.01         0.01
  YS02001625YS02001629        1.00      1.00      1.27      0.01         0.01
  YS02001629YS02163301        1.27      1.27      1.29      0.05         0.10
  YS02001633YS02163601        1.31      1.31      1.35      0.23         0.24
  YS02001641YS02001644        1.24      1.26      1.24      1.74         1.21
  YS02001644YS02001647        1.01      1.01      1.24      0.03         0.01
  YS02001647YS02001649        1.01      1.01      1.17      0.01         0.01
  YS02001649YS02001757        1.17      1.17      1.26      0.06         0.02
  YS02001652YS02001649        0.97      0.97      1.17      0.01         0.01
  YS02001655YS02001652        0.72      0.72      0.94      0.01         0.01
  YS02001658YS02001655        0.36      0.36      0.72      0.01         0.01
  YS02001661YS02001658        0.09      0.09      0.36      0.01         0.01
  YS02001664YS02001661        0.01      0.01      0.15      0.01         0.01
  YS02001745YS02001748        0.01      0.01      0.27      0.01         0.01
  YS02001748YS02001751        0.32      0.32      0.54      0.01         0.01
  YS02001751YS02001754        0.54      0.54      0.84      0.01         0.01
  YS02001754YS02001757        0.90      0.90      1.26      0.01         0.01
  YS02001757CaochengTiaoxuchi        1.26      1.26      2.27      0.43         0.41
  YS02001759YS02001757        1.15      1.15      1.26      0.01         0.01
  YS02001762YS02001759        1.12      1.12      1.15      0.01         0.01
  YS02001765YS02001762        1.06      1.06      1.12      0.01         0.01
  YS02001767YS02001765        1.02      1.02      1.06      0.01         0.02
  YS02001770YS02001767        1.01      1.01      1.02      0.69         0.64
  YS02001774YS02001770        0.98      0.98      1.09      0.01         0.01
  YS02001779YS02001774        0.83      0.83      1.09      0.01         0.01
  YS02001783YS02001784        0.66      0.69      0.66      0.87         0.66
  YS02001784YS02001785        0.54      0.66      0.54      1.18         0.54
  YS02001786YS02001788        0.01      0.54      0.01      0.99         0.01
  YS02001790YS02001791        0.01      0.01      0.01      0.65         0.01
  YS02001793JiankangQianchi        0.01      0.01      7.70      0.01         0.01
  YS02001882YS02001884        0.62      0.62      0.64      0.01         0.01
  YS02001884YS02001887        0.66      0.66      0.68      0.01         0.01
  YS02001887YS02001890        0.70      0.70      0.71      0.16         0.01
  YS02001890YS02001895        0.61      0.61      0.73      0.01         0.01
  YS02001895YS02001898        0.61      0.61      0.61      0.01         0.01
  YS02001898YS02001901        0.62      0.62      0.66      0.01         0.01
  YS02001901YS02001904        0.65      0.65      0.66      0.01         0.01
  YS02001904YS02001907        0.65      0.65      0.97      0.01         0.01
  YS02001907YS02006553        1.19      1.19      1.29      0.01         0.01
  YS02001910YS02001907        0.73      0.73      0.93      0.01         0.01
  YS02001915YS02001910        0.62      0.62      0.73      0.01         0.01
  YS02001918YS02001915        0.53      0.53      0.62      0.01         0.01
  YS02001920YS02001918        0.53      0.53      0.54      0.01         0.01
  YS02001923YS02001920        0.48      0.48      0.54      0.01         0.01
  YS02001926YS02001923        0.16      0.16      0.20      0.01         0.01
  YS02001929YS02001926        0.01      0.01      0.20      0.01         0.01
  YS02006553YS02006556        0.83      0.83      0.96      0.01         0.01
  YS02006556YS02006558        0.89      0.89      0.99      0.01         0.01
  YS02006558YS02006561        0.57      0.82      0.57      1.11         0.57
  YS02006561YS02001783        0.49      0.49      0.69      0.01         0.01
  YS02163301YS02001633        1.29      1.29      1.33      0.01         0.01
  YS02163601YS02164001        1.26      1.26      1.35      0.06         0.01
  YS02164001YS02001641        1.26      1.26      1.26      0.81         0.76
  
  
  ***************
  Pumping Summary
  ***************
  
  ---------------------------------------------------------------------------------------------------------
                                                  Min       Avg       Max     Total     Power    % Time Off
                        Percent   Number of      Flow      Flow      Flow    Volume     Usage    Pump Curve
  Pump                 Utilized   Start-Ups       LPS       LPS       LPS  10^6 ltr     Kw-hr    Low   High
  ---------------------------------------------------------------------------------------------------------
  CC-R1                   20.39           2      0.00    683.00    683.00     4.012     77.51    0.0    5.1
  CC-R2                   19.48           2      0.00    683.00    683.00     3.831     74.17    0.0    5.3
  CC-S1                   45.32           3      0.00    200.00    200.00     2.610     14.37    0.0    0.0
  CC-S2                   29.62           2      0.00    200.00    200.00     1.706      8.95    0.0    0.0
  JK-R1                   10.11          14      0.00   1000.00   1000.00     2.911     35.21    0.0    0.0
  JK-R2                    0.92           3      0.00   1000.00   1000.00     0.266      2.08    0.0    0.0
  JK-S                    18.66          19      0.00    300.00    300.00     1.612     21.74    0.0    0.0
  

  Analysis begun on:  Mon Feb 24 09:55:00 2025
  Analysis ended on:  Mon Feb 24 09:55:02 2025
  Total elapsed time: 00:00:02