
  EPA STORM WATER MANAGEMENT MODEL - VERSION 5.2 (Build 5.2.4)
  PYSWMM TOOLKIT API - VERSION v1.0 (2023-11-27)
  ------------------------------------------------------------

  
  ****************
  Analysis Options
  ****************
  Flow Units ............... CMS
  Process Models:
    Rainfall/Runoff ........ YES
    RDII ................... NO
    Snowmelt ............... NO
    Groundwater ............ NO
    Flow Routing ........... YES
    Ponding Allowed ........ YES
    Water Quality .......... NO
  Infiltration Method ...... HORTON
  Flow Routing Method ...... DYNWAVE
  Surcharge Method ......... EXTRAN
  Starting Date ............ 01/01/2000 08:00:00
  Ending Date .............. 01/01/2000 16:00:00
  Antecedent Dry Days ...... 0.0
  Report Time Step ......... 00:05:00
  Wet Time Step ............ 00:05:00
  Dry Time Step ............ 00:05:00
  Routing Time Step ........ 30.00 sec
  Variable Time Step ....... YES
  Maximum Trials ........... 8
  Number of Threads ........ 1
  Head Tolerance ........... 0.001500 m
  
  
  **************************        Volume         Depth
  Runoff Quantity Continuity     hectare-m            mm
  **************************     ---------       -------
  Total Precipitation ......         3.723        20.659
  Evaporation Loss .........         0.000         0.000
  Infiltration Loss ........         0.000         0.000
  Surface Runoff ...........         3.721        20.651
  Final Storage ............         0.024         0.132
  Continuity Error (%) .....        -0.603
  
  
  **************************        Volume        Volume
  Flow Routing Continuity        hectare-m      10^6 ltr
  **************************     ---------     ---------
  Dry Weather Inflow .......         0.399         3.989
  Wet Weather Inflow .......         3.718        37.181
  Groundwater Inflow .......         0.000         0.000
  RDII Inflow ..............         0.000         0.000
  External Inflow ..........         0.000         0.000
  External Outflow .........         0.547         5.474
  Flooding Loss ............         2.516        25.162
  Evaporation Loss .........         0.000         0.000
  Exfiltration Loss ........         0.000         0.000
  Initial Stored Volume ....         0.000         0.000
  Final Stored Volume ......         0.809         8.085
  Continuity Error (%) .....         5.946
  
  
  *************************
  Highest Continuity Errors
  *************************
  Node T2 (23.90%)
  Node T3 (19.52%)
  Node T4 (19.51%)
  Node T6 (14.45%)
  Node J12 (9.41%)
  
  
  ***************************
  Time-Step Critical Elements
  ***************************
  Link C15 (34.01%)
  Link C21 (2.37%)
  
  
  ********************************
  Highest Flow Instability Indexes
  ********************************
  Link C13 (9)
  Link C3 (6)
  Link C12 (6)
  Link C11 (5)
  Link C19 (5)
  
  
  *********************************
  Most Frequent Nonconverging Nodes
  *********************************
  Node Out_to_WWTP (3.51%)
  Node CSO9 (1.40%)
  Node CSO7 (1.31%)
  Node J4 (1.05%)
  Node CSO8 (0.35%)
  
  
  *************************
  Routing Time Step Summary
  *************************
  Minimum Time Step           :     0.27 sec
  Average Time Step           :    24.98 sec
  Maximum Time Step           :    30.00 sec
  % of Time in Steady State   :     0.00
  Average Iterations per Step :     2.67
  % of Steps Not Converging   :     3.51
  Time Step Frequencies       :
     30.000 - 13.228 sec      :    79.37 %
     13.228 -  5.833 sec      :    20.02 %
      5.833 -  2.572 sec      :     0.26 %
      2.572 -  1.134 sec      :     0.26 %
      1.134 -  0.500 sec      :     0.09 %
  
  
  ***************************
  Subcatchment Runoff Summary
  ***************************
  
  ------------------------------------------------------------------------------------------------------------------------------
                            Total      Total      Total      Total     Imperv       Perv      Total       Total     Peak  Runoff
                           Precip      Runon       Evap      Infil     Runoff     Runoff     Runoff      Runoff   Runoff   Coeff
  Subcatchment                 mm         mm         mm         mm         mm         mm         mm    10^6 ltr      CMS
  ------------------------------------------------------------------------------------------------------------------------------
  SC01                      31.53       0.00       0.00       0.00      31.66       0.00      31.66       10.45     4.45   1.004
  SC02                      14.47       0.00       0.00       0.00      14.46       0.00      14.46        3.29     1.94   0.999
  SC03                      18.81       0.00       0.00       0.00      18.90       0.00      18.90        3.40     2.51   1.005
  SC04                      14.47       0.00       0.00       0.00      14.32       0.00      14.32        0.99     0.48   0.990
  SC05                      31.53       0.00       0.00       0.00      31.64       0.00      31.64        4.94     2.09   1.003
  SC06                      11.58       0.00       0.00       0.00      11.36       0.00      11.36        3.70     0.98   0.981
  SC07                      14.47       0.00       0.00       0.00      14.33       0.00      14.33        0.68     0.33   0.990
  SC08                      18.81       0.00       0.00       0.00      18.82       0.00      18.82        5.27     3.53   1.001
  SC09                      11.58       0.00       0.00       0.00      11.47       0.00      11.47        0.79     0.23   0.991
  SC010                     31.53       0.00       0.00       0.00      31.59       0.00      31.59        3.71     1.54   1.002
  
  
  ******************
  Node Depth Summary
  ******************
  
  ---------------------------------------------------------------------------------
                                 Average  Maximum  Maximum  Time of Max    Reported
                                   Depth    Depth      HGL   Occurrence   Max Depth
  Node                 Type       Meters   Meters   Meters  days hr:min      Meters
  ---------------------------------------------------------------------------------
  J1                   JUNCTION     0.14     0.63    34.63     0  02:30        0.63
  J3                   JUNCTION     0.10     0.14    18.14     0  06:06        0.14
  CSO7                 JUNCTION     0.31     1.20    35.20     0  02:32        1.20
  J5                   JUNCTION     0.08     0.25    32.25     0  02:50        0.25
  CSO9                 JUNCTION     0.52     2.00    42.00     0  02:10        2.00
  J8                   JUNCTION     0.15     0.35    36.35     0  02:41        0.34
  CSO8                 JUNCTION     0.50     2.00    34.00     0  02:17        2.00
  J10                  JUNCTION     0.14     0.52    29.52     0  02:32        0.52
  J13                  JUNCTION     0.09     0.36    29.36     0  02:50        0.36
  J15                  JUNCTION     0.28     1.08    16.08     0  02:31        1.05
  J16                  JUNCTION     0.13     0.50    30.50     0  02:30        0.50
  CSO10                JUNCTION     0.33     1.00    31.00     0  02:07        1.00
  J12                  JUNCTION     0.66     1.06    27.06     0  03:11        1.03
  J4                   JUNCTION     0.21     1.01    34.01     0  02:34        0.75
  J6                   JUNCTION     0.05     0.07    25.07     0  03:45        0.07
  J2                   JUNCTION     0.07     0.08    25.08     0  04:01        0.08
  J19                  JUNCTION     0.14     0.17     8.17     0  02:20        0.17
  J9                   JUNCTION     0.08     0.11    29.11     0  02:50        0.11
  J14                  JUNCTION     0.10     0.15    20.15     0  05:28        0.15
  J17                  JUNCTION     0.05     0.08    20.08     0  03:20        0.08
  J7                   JUNCTION     0.11     0.23    39.23     0  03:02        0.23
  J11                  JUNCTION     0.12     0.30    31.30     0  03:05        0.30
  J18                  JUNCTION     0.07     0.16    29.16     0  02:53        0.16
  Out_to_WWTP          OUTFALL      0.14     0.17     6.17     0  02:21        0.17
  T5                   STORAGE      3.66     5.00    32.00     0  02:20        5.00
  T4                   STORAGE      3.16     5.00    32.00     0  03:03        5.00
  T6                   STORAGE      3.68     5.00    36.00     0  02:34        5.00
  T3                   STORAGE      3.36     5.00    27.00     0  03:04        5.00
  T2                   STORAGE      3.27     5.00    26.00     0  02:51        5.00
  T1                   STORAGE      3.45     5.00    15.00     0  02:19        5.00
  
  
  *******************
  Node Inflow Summary
  *******************
  
  -------------------------------------------------------------------------------------------------
                                  Maximum  Maximum                  Lateral       Total        Flow
                                  Lateral    Total  Time of Max      Inflow      Inflow     Balance
                                   Inflow   Inflow   Occurrence      Volume      Volume       Error
  Node                 Type           CMS      CMS  days hr:min    10^6 ltr    10^6 ltr     Percent
  -------------------------------------------------------------------------------------------------
  J1                   JUNCTION     2.110    2.110     0  02:30        5.49        5.49      -0.029
  J3                   JUNCTION     0.000    0.192     0  04:23           0        3.22       1.191
  CSO7                 JUNCTION     0.341    0.341     0  02:50       0.974       0.974       0.051
  J5                   JUNCTION     0.484    0.560     0  02:50        1.12        1.73       0.112
  CSO9                 JUNCTION     0.239    0.239     0  02:40       0.988       0.988       0.046
  J8                   JUNCTION     1.018    1.145     0  02:40        4.64        5.42       0.107
  CSO8                 JUNCTION     3.543    3.543     0  02:35        5.57        5.57       0.005
  J10                  JUNCTION     2.528    3.014     0  02:30        3.79        6.21      -0.074
  J13                  JUNCTION     1.954    1.954     0  02:50        3.76        3.76      -0.135
  J15                  JUNCTION     0.000    4.753     0  02:30           0        15.9       0.480
  J16                  JUNCTION     4.467    4.467     0  02:30          11          11      -0.097
  CSO10                JUNCTION     1.546    1.546     0  02:30        3.85        3.85       0.040
  J12                  JUNCTION     0.000    3.038     0  02:32           0        7.47      10.385
  J4                   JUNCTION     0.000    0.085     0  02:32           0        0.62       0.549
  J6                   JUNCTION     0.000    0.028     0  03:20           0       0.447       0.915
  J2                   JUNCTION     0.000    0.039     0  02:20           0       0.846       0.585
  J19                  JUNCTION     0.000    0.271     0  02:20           0        5.49       0.200
  J9                   JUNCTION     0.000    0.075     0  02:35           0        1.14       1.780
  J14                  JUNCTION     0.000    0.124     0  03:15           0        1.95       0.388
  J17                  JUNCTION     0.000    0.033     0  03:05           0       0.472       1.078
  J7                   JUNCTION     0.000    0.127     0  03:02           0        0.78       0.421
  J11                  JUNCTION     0.000    0.486     0  03:04           0        2.43       0.296
  J18                  JUNCTION     0.000    0.202     0  02:51           0        1.23       0.084
  Out_to_WWTP          OUTFALL      0.000    0.271     0  02:21           0        5.47       0.000
  T5                   STORAGE      0.000    2.100     0  02:30           0         5.5       7.109
  T4                   STORAGE      0.000    0.555     0  02:50           0        1.73      24.236
  T6                   STORAGE      0.000    1.137     0  02:41           0        5.42      16.888
  T3                   STORAGE      0.000    3.020     0  02:35           0        6.76      24.249
  T2                   STORAGE      0.000    1.943     0  02:50           0        3.77      31.409
  T1                   STORAGE      0.000    4.417     0  02:31           0        15.8       3.506
  
  
  **********************
  Node Surcharge Summary
  **********************
  
  Surcharging occurs when water rises above the top of the highest conduit.
  ---------------------------------------------------------------------
                                               Max. Height   Min. Depth
                                   Hours       Above Crown    Below Rim
  Node                 Type      Surcharged         Meters       Meters
  ---------------------------------------------------------------------
  CSO7                 JUNCTION        0.93          0.945        0.000
  CSO9                 JUNCTION        1.07          1.682        0.000
  CSO8                 JUNCTION        0.93          1.547        0.000
  CSO10                JUNCTION        1.17          0.560        0.000
  J4                   JUNCTION        0.91          0.713        0.987
  
  
  *********************
  Node Flooding Summary
  *********************
  
  Flooding refers to all water that overflows a node, whether it ponds or not.
  --------------------------------------------------------------------------
                                                             Total   Maximum
                                 Maximum   Time of Max       Flood    Ponded
                        Hours       Rate    Occurrence      Volume     Depth
  Node                 Flooded       CMS   days hr:min    10^6 ltr    Meters
  --------------------------------------------------------------------------
  CSO7                    0.82     0.265      0  02:50       0.354     0.000
  CSO9                    0.87     0.112      0  02:40       0.208     0.000
  CSO8                    0.80     3.056      0  02:35       3.139     0.000
  CSO10                   1.12     1.342      0  02:30       2.618     0.000
  T5                      1.87     2.059      0  02:30       3.882     0.000
  T4                      2.65     0.316      0  03:03       0.475     0.000
  T6                      3.39     1.062      0  02:41       2.927     0.000
  T3                      1.22     0.992      0  03:04       0.827     0.000
  T2                      1.95     1.791      0  02:51       1.424     0.000
  T1                      1.57     4.146      0  02:31       9.299     0.000
  
  
  **********************
  Storage Volume Summary
  **********************
  
  ------------------------------------------------------------------------------------------------
                         Average    Avg   Evap  Exfil     Maximum    Max    Time of Max    Maximum
                          Volume   Pcnt   Pcnt   Pcnt      Volume   Pcnt     Occurrence    Outflow
  Storage Unit           1000 m³   Full   Loss   Loss     1000 m³   Full    days hr:min        CMS
  ------------------------------------------------------------------------------------------------
  T5                       0.366   73.1    0.0    0.0       0.500  100.0       0  02:20      0.039
  T4                       0.316   63.2    0.0    0.0       0.500  100.0       0  03:03      0.028
  T6                       0.442   73.6    0.0    0.0       0.600  100.0       0  02:34      0.075
  T3                       1.748   67.2    0.0    0.0       2.600  100.0       0  03:04      0.479
  T2                       0.653   65.3    0.0    0.0       1.000  100.0       0  02:51      0.033
  T1                       0.484   69.1    0.0    0.0       0.700  100.0       0  02:19      0.271
  
  
  ***********************
  Outfall Loading Summary
  ***********************
  
  -----------------------------------------------------------
                         Flow       Avg       Max       Total
                         Freq      Flow      Flow      Volume
  Outfall Node           Pcnt       CMS       CMS    10^6 ltr
  -----------------------------------------------------------
  Out_to_WWTP           99.04     0.204     0.271       5.474
  -----------------------------------------------------------
  System                99.04     0.204     0.271       5.474
  
  
  ********************
  Link Flow Summary
  ********************
  
  -----------------------------------------------------------------------------
                                 Maximum  Time of Max   Maximum    Max/    Max/
                                  |Flow|   Occurrence   |Veloc|    Full    Full
  Link                 Type          CMS  days hr:min     m/sec    Flow   Depth
  -----------------------------------------------------------------------------
  C1                   CONDUIT     0.039     0  03:08      1.37    0.01    0.11
  C6                   CONDUIT     0.076     0  02:50      1.29    1.20    0.92
  C2                   CONDUIT     0.028     0  03:45      1.00    0.03    0.17
  C9                   CONDUIT     0.127     0  03:03      1.28    0.43    0.58
  C16                  CONDUIT     0.487     0  03:00      1.81    0.05    0.20
  C3                   CONDUIT     0.125     0  05:28      1.90    0.05    0.14
  C19                  CONDUIT     0.033     0  03:20      0.70    0.01    0.52
  C11                  CONDUIT     0.189     0  06:06      1.78    0.01    0.29
  C20                  CONDUIT     4.449     0  02:30      5.62    0.14    0.39
  C22                  CONDUIT     0.202     0  02:45      1.63    0.09    0.60
  C12                  CONDUIT     0.075     0  02:50      0.66    0.01    0.28
  C17                  CONDUIT     3.009     0  02:32      4.50    0.15    0.32
  C10                  CONDUIT     1.137     0  02:41      1.66    0.12    0.62
  C13                  CONDUIT     3.020     0  02:35      1.68    0.18    0.77
  C18                  CONDUIT     1.943     0  02:50      3.36    0.07    0.59
  C23                  CONDUIT     4.417     0  02:31      2.74    0.49    0.86
  C4                   CONDUIT     2.100     0  02:30      3.06    0.51    0.82
  C7                   CONDUIT     0.555     0  02:50      1.44    0.14    0.62
  C14                  CONDUIT     0.271     0  02:21      2.08    0.02    0.09
  C5                   CONDUIT     0.085     0  02:32      1.66    1.45    1.00
  C8                   CONDUIT     0.127     0  03:02      1.79    1.60    0.86
  C15                  CONDUIT     0.486     0  03:04      3.51    1.55    0.83
  C21                  CONDUIT     0.202     0  02:51      1.85    1.16    0.69
  V4                   ORIFICE     0.028     0  03:20                      0.35
  V5                   ORIFICE     0.039     0  02:20                      1.00
  V1                   ORIFICE     0.271     0  02:20                      1.00
  V6                   ORIFICE     0.075     0  02:35                      0.43
  V3                   ORIFICE     0.124     0  03:15                      0.65
  V2                   ORIFICE     0.033     0  03:05                      0.24
  
  
  ***************************
  Flow Classification Summary
  ***************************
  
  -------------------------------------------------------------------------------------
                      Adjusted    ---------- Fraction of Time in Flow Class ---------- 
                       /Actual         Up    Down  Sub   Sup   Up    Down  Norm  Inlet 
  Conduit               Length    Dry  Dry   Dry   Crit  Crit  Crit  Crit  Ltd   Ctrl  
  -------------------------------------------------------------------------------------
  C1                      1.00   0.00  0.00  0.00  0.07  0.93  0.00  0.00  0.93  0.00
  C6                      1.00   0.00  0.00  0.00  0.14  0.86  0.00  0.00  0.00  0.00
  C2                      1.00   0.00  0.00  0.00  0.63  0.37  0.00  0.00  0.97  0.00
  C9                      1.00   0.00  0.00  0.00  1.00  0.00  0.00  0.00  1.00  0.00
  C16                     1.00   0.00  0.00  0.00  0.70  0.30  0.00  0.00  0.52  0.00
  C3                      1.00   0.00  0.01  0.00  0.05  0.94  0.00  0.00  0.50  0.00
  C19                     1.00   0.00  0.00  0.00  1.00  0.00  0.00  0.00  1.00  0.00
  C11                     1.00   0.00  0.00  0.00  0.28  0.71  0.00  0.00  1.00  0.00
  C20                     1.00   0.00  0.00  0.00  0.54  0.46  0.00  0.00  0.98  0.00
  C22                     1.00   0.00  0.00  0.00  0.91  0.09  0.00  0.00  1.00  0.00
  C12                     1.00   0.00  0.00  0.00  0.99  0.00  0.00  0.00  1.00  0.00
  C17                     1.00   0.00  0.00  0.00  0.64  0.36  0.00  0.00  0.91  0.00
  C10                     1.00   0.00  0.00  0.00  0.96  0.04  0.00  0.00  0.98  0.00
  C13                     1.00   0.00  0.00  0.00  0.86  0.14  0.00  0.00  0.25  0.00
  C18                     1.00   0.00  0.00  0.00  0.94  0.06  0.00  0.00  0.97  0.00
  C23                     1.00   0.00  0.00  0.00  0.87  0.13  0.00  0.00  0.85  0.00
  C4                      1.00   0.00  0.00  0.00  0.93  0.07  0.00  0.00  0.93  0.00
  C7                      1.00   0.00  0.00  0.00  0.95  0.05  0.00  0.00  0.97  0.00
  C14                     1.00   0.00  0.01  0.00  0.01  0.98  0.00  0.00  0.20  0.00
  C5                      1.00   0.00  0.00  0.00  0.93  0.07  0.00  0.00  0.86  0.00
  C8                      1.00   0.00  0.00  0.00  0.14  0.86  0.00  0.00  0.00  0.00
  C15                     1.00   0.00  0.00  0.00  0.00  1.00  0.00  0.00  0.00  0.00
  C21                     1.00   0.00  0.00  0.00  0.01  0.99  0.00  0.00  0.00  0.00
  
  
  *************************
  Conduit Surcharge Summary
  *************************
  
  ----------------------------------------------------------------------------
                                                           Hours        Hours 
                         --------- Hours Full --------   Above Full   Capacity
  Conduit                Both Ends  Upstream  Dnstream   Normal Flow   Limited
  ----------------------------------------------------------------------------
  C6                          0.01      0.91      0.01      0.84         0.01
  C19                         0.01      0.01      0.10      0.01         0.01
  C22                         0.01      0.01      0.25      0.01         0.01
  C10                         0.01      0.01      5.64      0.01         0.01
  C13                         0.01      0.01      5.37      0.01         0.01
  C18                         0.01      0.01      5.24      0.01         0.01
  C23                         0.01      0.01      5.69      0.01         0.01
  C4                          0.01      0.01      5.76      0.01         0.01
  C7                          0.01      0.01      5.30      0.01         0.01
  C5                          0.91      0.93      1.01      0.93         0.89
  C8                          0.01      1.07      0.01      1.09         0.01
  C15                         0.01      0.93      0.01      0.95         0.01
  C21                         0.01      1.16      0.01      1.14         0.01
  

  Analysis begun on:  Sun Oct 20 16:56:36 2024
  Analysis ended on:  Sun Oct 20 16:56:36 2024
  Total elapsed time: < 1 sec