
  EPA STORM WATER MANAGEMENT MODEL - VERSION 5.2 (Build 5.2.4)
  PYSWMM TOOLKIT API - VERSION v1.0 (2023-11-27)
  ------------------------------------------------------------

  WARNING 04: minimum elevation drop used for Conduit WS02004404WS02004405
  WARNING 03: negative offset ignored for Link YS02001904YS02001907
  
  ****************
  Analysis Options
  ****************
  Flow Units ............... LPS
  Process Models:
    Rainfall/Runoff ........ YES
    RDII ................... NO
    Snowmelt ............... NO
    Groundwater ............ NO
    Flow Routing ........... YES
    Ponding Allowed ........ NO
    Water Quality .......... NO
  Infiltration Method ...... HORTON
  Flow Routing Method ...... DYNWAVE
  Surcharge Method ......... EXTRAN
  Starting Date ............ 08/28/2015 08:00:00
  Ending Date .............. 08/28/2015 16:00:00
  Antecedent Dry Days ...... 8.0
  Report Time Step ......... 00:01:00
  Wet Time Step ............ 00:01:00
  Dry Time Step ............ 00:01:00
  Routing Time Step ........ 30.00 sec
  Variable Time Step ....... YES
  Maximum Trials ........... 8
  Number of Threads ........ 1
  Head Tolerance ........... 0.001500 m
  
  
  **************************        Volume         Depth
  Runoff Quantity Continuity     hectare-m            mm
  **************************     ---------       -------
  Total Precipitation ......        31.500       949.648
  Evaporation Loss .........         0.000         0.000
  Infiltration Loss ........         0.114         3.425
  Surface Runoff ...........        31.364       945.546
  Final Storage ............         0.033         1.004
  Continuity Error (%) .....        -0.035
  
  
  **************************        Volume        Volume
  Flow Routing Continuity        hectare-m      10^6 ltr
  **************************     ---------     ---------
  Dry Weather Inflow .......         0.025         0.248
  Wet Weather Inflow .......        31.363       313.633
  Groundwater Inflow .......         0.000         0.000
  RDII Inflow ..............         0.000         0.000
  External Inflow ..........         0.083         0.825
  External Outflow .........         2.958        29.585
  Flooding Loss ............        28.576       285.760
  Evaporation Loss .........         0.000         0.000
  Exfiltration Loss ........         0.000         0.000
  Initial Stored Volume ....         0.243         2.431
  Final Stored Volume ......         0.193         1.930
  Continuity Error (%) .....        -0.044
  
  
  *************************
  Highest Continuity Errors
  *************************
  Node YS02001583 (-10.75%)
  Node YS02001884 (4.15%)
  Node WS02006256 (-2.23%)
  
  
  ***************************
  Time-Step Critical Elements
  ***************************
  Link WS02006252WS02006251 (26.34%)
  Link YS02001791YS02001793 (22.02%)
  Link YS02001793JiankangQianchi (15.34%)
  Link WS02006238WS02006235 (10.33%)
  Link WS02003066WSF200 (7.86%)
  
  
  ********************************
  Highest Flow Instability Indexes
  ********************************
  Link WS02006113WS02006111 (45)
  Link YS02001602YS02001605 (42)
  Link YS02001619YS02001622 (41)
  Link YS02001622YS02001625 (40)
  Link YS02001605YS02001607 (38)
  
  
  *********************************
  Most Frequent Nonconverging Nodes
  *********************************
  Node CC-1 (31.10%)
  Node CC-2 (31.10%)
  Node JK-1 (31.10%)
  Node JK-2 (31.10%)
  Node WSC (31.10%)
  
  
  *************************
  Routing Time Step Summary
  *************************
  Minimum Time Step           :     0.00 sec
  Average Time Step           :     2.31 sec
  Maximum Time Step           :     6.12 sec
  % of Time in Steady State   :     0.00
  Average Iterations per Step :     4.27
  % of Steps Not Converging   :    31.10
  Time Step Frequencies       :
     30.000 - 13.228 sec      :     0.00 %
     13.228 -  5.833 sec      :     6.24 %
      5.833 -  2.572 sec      :    25.26 %
      2.572 -  1.134 sec      :    31.08 %
      1.134 -  0.500 sec      :    37.42 %
  
  
  ***************************
  Subcatchment Runoff Summary
  ***************************
  
  ------------------------------------------------------------------------------------------------------------------------------
                            Total      Total      Total      Total     Imperv       Perv      Total       Total     Peak  Runoff
                           Precip      Runon       Evap      Infil     Runoff     Runoff     Runoff      Runoff   Runoff   Coeff
  Subcatchment                 mm         mm         mm         mm         mm         mm         mm    10^6 ltr      LPS
  ------------------------------------------------------------------------------------------------------------------------------
  sub60                    949.65       0.00       0.00       1.99     834.79     112.01     946.80       12.44  9979.97   0.997
  sub61                    949.65       0.00       0.00       2.91     787.37     158.59     945.96       17.36 13910.70   0.996
  sub62                    949.65       0.00       0.00       1.33     872.69      74.67     947.37       25.96 20250.71   0.998
  sub63                    949.65       0.00       0.00       5.44     673.53     270.04     943.57       21.42 16567.43   0.994
  sub64                    949.65       0.00       0.00       2.74     806.27     139.75     946.02       22.72 17220.00   0.996
  sub65                    949.65       0.00       0.00       2.37     825.21     121.12     946.33       26.05 19475.54   0.997
  sub66                    949.65       0.00       0.00       6.85     673.37     268.61     941.98       43.92 29363.40   0.992
  sub67                    949.65       0.00       0.00       1.26     872.75      74.75     947.50       17.62 14390.77   0.998
  sub68                    949.65       0.00       0.00       2.41     815.80     130.59     946.39       26.04 20552.56   0.997
  sub69                    949.65       0.00       0.00       2.25     807.35     140.25     947.60       35.08 25999.03   0.998
  sub70                    949.65       0.00       0.00       7.64     626.78     315.30     942.07       27.22 17070.95   0.992
  sub71                    949.65       0.00       0.00       1.37     872.63      74.63     947.26       24.77 18625.16   0.997
  sub72                    949.65       0.00       0.00       1.22     882.03      65.27     947.30       13.03  9370.01   0.998
  
  
  ******************
  Node Depth Summary
  ******************
  
  ---------------------------------------------------------------------------------
                                 Average  Maximum  Maximum  Time of Max    Reported
                                   Depth    Depth      HGL   Occurrence   Max Depth
  Node                 Type       Meters   Meters   Meters  days hr:min      Meters
  ---------------------------------------------------------------------------------
  WS02003060           JUNCTION     0.24     0.38     5.31     0  02:02        0.38
  WS02003066           JUNCTION     0.19     0.30     5.85     0  02:01        0.30
  WS02003067           JUNCTION     0.48     0.70     6.02     0  02:01        0.70
  WS02003069           JUNCTION     0.26     0.43     5.01     0  02:20        0.43
  WS02003072           JUNCTION     0.32     0.50     4.87     0  02:21        0.50
  WS02003073           JUNCTION     0.18     0.30     4.36     0  02:22        0.30
  WS02004401           JUNCTION     0.56     0.85     6.85     0  01:46        0.85
  WS02004402           JUNCTION     0.59     0.88     6.84     0  01:59        0.88
  WS02004403           JUNCTION     0.61     0.89     6.82     0  02:11        0.89
  WS02004404           JUNCTION     0.68     0.96     6.81     0  01:45        0.96
  WS02004405           JUNCTION     0.67     0.95     6.80     0  01:45        0.95
  WS02004406           JUNCTION     0.68     0.96     6.79     0  02:11        0.96
  WS02004407           JUNCTION     0.17     0.30     6.61     0  02:00        0.30
  WS02004409           JUNCTION     0.39     0.67     6.44     0  02:20        0.67
  WS02004410           JUNCTION     0.41     0.68     6.40     0  02:20        0.68
  WS02004411           JUNCTION     0.43     0.69     6.37     0  01:48        0.69
  WS02004412           JUNCTION     0.44     0.70     6.34     0  02:19        0.70
  WS02004413           JUNCTION     0.59     0.86     6.33     0  01:48        0.86
  WS02006109           JUNCTION     0.64     1.26     7.88     0  03:06        1.04
  WS02006110           JUNCTION     0.64     1.32     7.91     0  03:06        0.98
  WS02006111           JUNCTION     0.17     0.29     6.99     0  01:44        0.29
  WS02006112           JUNCTION     0.71     1.07     6.95     0  02:54        1.06
  WS02006113           JUNCTION     0.27     0.46     7.35     0  02:07        0.46
  WS02006115           JUNCTION     0.46     0.75     6.89     0  01:45        0.75
  WS02006116           JUNCTION     0.54     0.83     6.87     0  02:20        0.83
  WS02006228           JUNCTION     0.64     1.17     7.82     0  03:05        1.12
  WS02006229           JUNCTION     0.62     1.20     7.90     0  03:05        1.15
  WS02006230           JUNCTION     0.64     1.35     8.09     0  01:47        1.31
  WS02006231           JUNCTION     0.43     1.87     8.99     0  02:30        1.20
  WS02006232           JUNCTION     0.56     1.78     8.82     0  02:30        1.33
  WS02006234           JUNCTION     0.50     1.96     9.12     0  02:30        1.38
  WS02006235           JUNCTION     0.55     2.00     9.16     0  02:30        1.73
  WS02006238           JUNCTION     0.58     2.06     9.20     0  02:30        2.01
  WS02006239           JUNCTION     0.56     1.98     9.19     0  02:30        1.49
  WS02006240           JUNCTION     0.54     1.80     9.09     0  02:30        1.43
  WS02006242           JUNCTION     0.62     1.55     8.82     0  02:30        1.46
  WS02006243           JUNCTION     0.55     1.41     8.83     0  02:49        1.31
  WS02006245           JUNCTION     0.55     1.34     8.83     0  03:03        1.24
  WS02006247           JUNCTION     0.58     1.29     8.79     0  03:03        1.21
  WS02006248           JUNCTION     0.55     1.10     8.69     0  01:26        1.10
  WS02006249           JUNCTION     0.58     1.09     8.69     0  01:26        1.09
  WS02006251           JUNCTION     0.59     1.49     9.16     0  01:28        1.40
  WS02006252           JUNCTION     0.40     1.50     9.74     0  01:16        0.98
  WS02006256           JUNCTION     0.95     2.35     9.28     0  00:06        2.35
  WSF200               JUNCTION     0.17     0.29     5.52     0  02:02        0.29
  YS02001580           JUNCTION     0.30     1.05     9.59     0  01:08        1.05
  YS02001583           JUNCTION     0.33     1.14     9.64     0  01:08        1.14
  YS02001586           JUNCTION     0.47     1.13     9.30     0  01:08        1.13
  YS02001590           JUNCTION     0.60     1.40     9.26     0  01:09        1.40
  YS02001593           JUNCTION     0.53     1.42     9.28     0  01:09        1.42
  YS02001596           JUNCTION     0.69     1.75     9.17     0  01:09        1.75
  YS02001600           JUNCTION     0.79     1.87     9.00     0  01:09        1.87
  YS02001601           JUNCTION     0.96     2.06     8.90     0  01:08        2.06
  YS02001602           JUNCTION     0.86     1.87     8.77     0  01:10        1.87
  YS02001605           JUNCTION     0.81     1.78     8.68     0  01:10        1.78
  YS02001607           JUNCTION     0.77     1.68     8.53     0  01:10        1.68
  YS02001610           JUNCTION     0.81     1.68     8.48     0  01:09        1.68
  YS02001613           JUNCTION     0.78     1.70     8.54     0  01:09        1.70
  YS02001616           JUNCTION     0.72     1.61     8.52     0  01:09        1.61
  YS02001619           JUNCTION     0.71     1.61     8.54     0  01:09        1.61
  YS02001622           JUNCTION     0.69     1.62     8.52     0  02:09        1.62
  YS02001625           JUNCTION     0.91     1.78     8.38     0  01:10        1.78
  YS02001629           JUNCTION     0.86     1.85     8.40     0  01:10        1.85
  YS02001633           JUNCTION     0.96     2.08     8.53     0  01:27        2.08
  YS02001641           JUNCTION     0.93     2.00     8.44     0  02:32        2.00
  YS02001644           JUNCTION     0.92     1.92     8.35     0  01:11        1.92
  YS02001647           JUNCTION     0.76     1.80     8.41     0  01:43        1.80
  YS02001649           JUNCTION     0.87     2.05     8.44     0  01:13        2.05
  YS02001652           JUNCTION     0.79     2.16     8.76     0  01:53        2.16
  YS02001655           JUNCTION     0.72     2.20     9.05     0  01:34        2.20
  YS02001658           JUNCTION     0.65     2.30     9.44     0  01:12        2.30
  YS02001661           JUNCTION     0.63     2.46     9.86     0  01:53        2.46
  YS02001664           JUNCTION     0.44     2.31    10.23     0  01:35        2.31
  YS02001745           JUNCTION     0.47     2.35     9.87     0  01:41        2.35
  YS02001748           JUNCTION     0.61     2.27     9.35     0  01:39        2.27
  YS02001751           JUNCTION     0.67     2.20     9.08     0  01:41        2.20
  YS02001754           JUNCTION     0.76     2.20     8.81     0  01:53        2.20
  YS02001757           JUNCTION     0.93     2.21     8.47     0  01:37        2.21
  YS02001759           JUNCTION     0.88     2.21     8.57     0  01:33        2.21
  YS02001762           JUNCTION     0.86     2.15     8.55     0  01:34        2.15
  YS02001765           JUNCTION     0.84     2.10     8.55     0  01:57        2.10
  YS02001767           JUNCTION     0.82     2.02     8.51     0  01:53        2.02
  YS02001770           JUNCTION     0.81     1.95     8.44     0  01:13        1.95
  YS02001774           JUNCTION     0.87     2.05     8.47     0  02:09        2.05
  YS02001779           JUNCTION     0.68     1.68     8.37     0  01:11        1.68
  YS02001783           JUNCTION     0.53     1.49     7.63     0  01:36        1.49
  YS02001784           JUNCTION     0.50     1.32     7.39     0  01:54        1.32
  YS02001786           JUNCTION     0.39     1.00     7.03     0  01:45        0.99
  YS02001788           JUNCTION     0.28     0.70     6.67     0  02:04        0.69
  YS02001790           JUNCTION     0.31     0.79     6.43     0  02:03        0.78
  YS02001791           JUNCTION     0.19     0.47     5.94     0  02:04        0.47
  YS02001793           JUNCTION     0.12     0.40     5.23     0  02:03        0.36
  YS02001882           JUNCTION     0.69     1.83     8.55     0  01:10        1.83
  YS02001884           JUNCTION     0.77     1.93     8.55     0  01:33        1.93
  YS02001887           JUNCTION     0.84     2.00     8.54     0  01:33        2.00
  YS02001890           JUNCTION     0.83     1.81     8.32     0  01:09        1.81
  YS02001895           JUNCTION     0.62     1.75     8.50     0  01:09        1.66
  YS02001898           JUNCTION     0.63     1.77     8.51     0  01:09        1.77
  YS02001901           JUNCTION     0.73     1.87     8.48     0  01:09        1.87
  YS02001904           JUNCTION     0.70     1.82     8.45     0  01:10        1.82
  YS02001907           JUNCTION     0.99     1.96     8.25     0  01:10        1.96
  YS02001910           JUNCTION     0.88     2.08     8.59     0  01:53        2.08
  YS02001915           JUNCTION     0.76     2.00     8.72     0  01:23        2.00
  YS02001918           JUNCTION     0.61     1.81     8.88     0  01:11        1.81
  YS02001920           JUNCTION     0.70     2.10     9.11     0  01:11        2.05
  YS02001923           JUNCTION     0.57     2.03     9.29     0  01:11        1.92
  YS02001926           JUNCTION     0.56     1.90     9.35     0  01:11        1.90
  YS02001929           JUNCTION     0.46     1.78     9.47     0  01:11        1.78
  YS02006553           JUNCTION     1.02     2.14     8.42     0  01:50        2.13
  YS02006556           JUNCTION     1.02     2.34     8.65     0  01:42        2.34
  YS02006558           JUNCTION     1.08     2.50     8.77     0  01:35        2.50
  YS02006561           JUNCTION     0.39     1.22     7.88     0  02:09        1.22
  YS02163301           JUNCTION     0.89     2.03     8.55     0  01:53        2.03
  YS02163601           JUNCTION     0.99     2.08     8.48     0  01:53        2.08
  YS02164001           JUNCTION     0.92     1.98     8.44     0  01:57        1.98
  CC-1                 OUTFALL      0.00     0.00     0.00     0  00:00        0.00
  CC-2                 OUTFALL      0.00     0.00     0.00     0  00:00        0.00
  JK-1                 OUTFALL      0.00     0.00     0.00     0  00:00        0.00
  JK-2                 OUTFALL      0.00     0.00     0.00     0  00:00        0.00
  WSC                  OUTFALL      0.18     0.30     0.97     0  02:22        0.30
  CC-storage           STORAGE      1.25     2.30     7.80     0  02:09        2.30
  JK-storage           STORAGE      1.92     4.30     5.10     0  01:56        4.30
  
  
  *******************
  Node Inflow Summary
  *******************
  
  -------------------------------------------------------------------------------------------------
                                  Maximum  Maximum                  Lateral       Total        Flow
                                  Lateral    Total  Time of Max      Inflow      Inflow     Balance
                                   Inflow   Inflow   Occurrence      Volume      Volume       Error
  Node                 Type           LPS      LPS  days hr:min    10^6 ltr    10^6 ltr     Percent
  -------------------------------------------------------------------------------------------------
  WS02003060           JUNCTION     16.53   551.42     0  02:02       0.471        6.09       0.031
  WS02003066           JUNCTION      0.00   534.48     0  02:02           0        5.62       0.021
  WS02003067           JUNCTION      0.00   534.49     0  02:19           0        5.63       0.071
  WS02003069           JUNCTION      0.32   551.45     0  02:02     0.00912         6.1       0.056
  WS02003072           JUNCTION      0.00   551.34     0  02:21           0         6.1       0.103
  WS02003073           JUNCTION      1.82   553.14     0  02:21      0.0519        6.14       0.079
  WS02004401           JUNCTION      0.00   538.10     0  02:10           0        5.72       0.172
  WS02004402           JUNCTION      0.00   537.96     0  02:11           0        5.71       0.175
  WS02004403           JUNCTION      0.00   537.32     0  02:11           0         5.7       0.172
  WS02004404           JUNCTION      0.16   536.61     0  01:59     0.00462         5.7       0.144
  WS02004405           JUNCTION      0.04   536.86     0  02:11     0.00109        5.69       0.215
  WS02004406           JUNCTION      0.00   537.64     0  02:11           0        5.68       0.357
  WS02004407           JUNCTION      0.00   536.02     0  01:59           0        5.66       0.015
  WS02004409           JUNCTION      0.00   535.38     0  02:00           0        5.66       0.038
  WS02004410           JUNCTION      0.00   535.13     0  01:47           0        5.65       0.069
  WS02004411           JUNCTION      0.00   534.94     0  01:47           0        5.65       0.090
  WS02004412           JUNCTION      0.00   534.81     0  01:48           0        5.65       0.123
  WS02004413           JUNCTION      0.00   534.84     0  01:48           0        5.64       0.224
  WS02006109           JUNCTION      1.23   559.81     0  03:06      0.0351        5.76       0.098
  WS02006110           JUNCTION      0.00   560.68     0  03:06           0        5.76       0.131
  WS02006111           JUNCTION      0.00   561.94     0  02:07           0        5.75       0.010
  WS02006112           JUNCTION      0.00   543.04     0  02:20           0        5.75       0.302
  WS02006113           JUNCTION      0.00   567.75     0  03:06           0        5.75       0.024
  WS02006115           JUNCTION      0.00   549.55     0  02:54           0        5.73       0.114
  WS02006116           JUNCTION      0.00   539.39     0  01:58           0        5.73       0.060
  WS02006228           JUNCTION      0.00   557.66     0  03:06           0        5.73       0.036
  WS02006229           JUNCTION      0.00   556.90     0  03:06           0        5.74       0.085
  WS02006230           JUNCTION     10.28   596.86     0  02:44       0.293        5.74      -0.004
  WS02006231           JUNCTION      0.00   594.17     0  02:55           0        5.44      -0.133
  WS02006232           JUNCTION      0.00   592.96     0  02:55           0        5.45       0.246
  WS02006234           JUNCTION      0.00   587.94     0  01:28           0        5.44      -0.124
  WS02006235           JUNCTION      0.00   584.44     0  01:28           0        5.45       0.024
  WS02006238           JUNCTION      0.00   433.71     0  02:49           0         4.6      -0.041
  WS02006239           JUNCTION      0.00   432.81     0  02:49           0         4.6      -0.094
  WS02006240           JUNCTION      0.00   427.34     0  02:49           0         4.6       0.021
  WS02006242           JUNCTION      0.00   427.76     0  02:49           0        4.61       0.092
  WS02006243           JUNCTION      0.00   428.39     0  02:49           0        4.61       0.020
  WS02006245           JUNCTION      0.00   429.23     0  02:49           0        4.61       0.156
  WS02006247           JUNCTION      0.00   429.33     0  02:49           0        4.62       0.037
  WS02006248           JUNCTION      0.00   429.44     0  02:49           0        4.62       0.063
  WS02006249           JUNCTION      0.00   429.54     0  02:49           0        4.85       0.130
  WS02006251           JUNCTION      0.08   410.80     0  02:36     0.00219        4.84      -0.191
  WS02006252           JUNCTION      0.00   400.00     0  01:16           0         4.8      -0.679
  WS02006256           JUNCTION      0.00   300.00     0  01:25           0        1.32      -2.184
  WSF200               JUNCTION      0.00   534.56     0  02:02           0        5.62       0.006
  YS02001580           JUNCTION      0.00   207.08     0  01:08           0     0.00486      -4.447
  YS02001583           JUNCTION      0.00   260.75     0  01:08           0      0.0154      -9.708
  YS02001586           JUNCTION  17070.95 17070.95     0  01:50        27.2        27.2       0.008
  YS02001590           JUNCTION      0.00   318.68     0  01:55           0        2.86      -0.027
  YS02001593           JUNCTION      0.00   318.42     0  02:32           0        2.86       0.011
  YS02001596           JUNCTION      0.00   318.07     0  01:46           0        2.86      -0.025
  YS02001600           JUNCTION      0.00   318.11     0  03:09           0        2.86       0.025
  YS02001601           JUNCTION  25999.03 26316.66     0  01:49        35.1        37.9       0.001
  YS02001602           JUNCTION      0.00   609.57     0  01:08           0        3.79       0.015
  YS02001605           JUNCTION      0.00   609.85     0  01:08           0        3.32       0.016
  YS02001607           JUNCTION      0.00   609.40     0  01:08           0        3.32       0.028
  YS02001610           JUNCTION      0.00   955.49     0  01:27           0        7.14       0.032
  YS02001613           JUNCTION      0.00   619.55     0  02:24           0        4.77      -0.016
  YS02001616           JUNCTION      0.00   619.53     0  02:24           0        4.78       0.004
  YS02001619           JUNCTION  29363.40 29363.40     0  01:50        43.9        44.9      -0.002
  YS02001622           JUNCTION      0.00  1054.04     0  01:54           0        8.88      -0.003
  YS02001625           JUNCTION      0.00  1505.53     0  02:03           0        11.7       0.092
  YS02001629           JUNCTION      0.00  1139.06     0  01:48           0        7.47      -0.010
  YS02001633           JUNCTION  19475.74 19475.74     0  01:49        26.1        27.9       0.011
  YS02001641           JUNCTION      0.00  1333.85     0  01:10           0        7.35       0.039
  YS02001644           JUNCTION  17220.04 18971.89     0  01:49        22.7        33.9       0.009
  YS02001647           JUNCTION      0.00  1858.04     0  01:10           0        7.02       0.006
  YS02001649           JUNCTION      0.00  3237.21     0  02:08           0        16.3      -0.001
  YS02001652           JUNCTION      0.00  2431.75     0  01:53           0        11.3      -0.035
  YS02001655           JUNCTION      0.15  2731.44     0  01:54     0.00439          12       0.029
  YS02001658           JUNCTION      0.00  2783.88     0  02:02           0        12.1      -0.006
  YS02001661           JUNCTION      0.00  2786.95     0  01:53           0        12.1       0.003
  YS02001664           JUNCTION  16567.43 16567.43     0  01:49        21.4        21.4      -0.002
  YS02001745           JUNCTION   9979.98  9979.98     0  01:49        12.4        12.4       0.015
  YS02001748           JUNCTION      0.04  3122.13     0  01:52     0.00128        9.35      -0.036
  YS02001751           JUNCTION      0.01  2354.40     0  01:45    0.000313        8.35       0.026
  YS02001754           JUNCTION      0.26  2355.11     0  01:45     0.00741        8.36      -0.031
  YS02001757           JUNCTION      0.00  3762.00     0  01:45           0        22.8       0.024
  YS02001759           JUNCTION  13910.74 13910.74     0  01:49        17.4        18.8      -0.005
  YS02001762           JUNCTION      0.00   828.45     0  01:12           0         3.7       0.006
  YS02001765           JUNCTION      0.00   826.70     0  01:12           0        3.69      -0.004
  YS02001767           JUNCTION      0.54   825.32     0  01:12      0.0152         3.7       0.012
  YS02001770           JUNCTION  20250.87 20973.51     0  01:49          26        28.3      -0.003
  YS02001774           JUNCTION      0.00   852.16     0  02:13           0        5.06       0.020
  YS02001779           JUNCTION      0.01   851.81     0  01:54    0.000142        5.02      -0.015
  YS02001783           JUNCTION      0.00  1322.50     0  01:57           0        9.53       0.003
  YS02001784           JUNCTION      1.06  1323.23     0  01:47      0.0302        9.56       0.006
  YS02001786           JUNCTION      0.06  1323.20     0  01:42      0.0016        9.56       0.006
  YS02001788           JUNCTION      0.07  1323.57     0  01:57     0.00202        9.56       0.002
  YS02001790           JUNCTION      0.15  1345.84     0  02:03     0.00442        9.57       0.039
  YS02001791           JUNCTION      0.00  1418.38     0  01:59           0        9.56      -0.063
  YS02001793           JUNCTION      0.00  1445.05     0  01:59           0        9.57      -0.002
  YS02001882           JUNCTION      0.00   160.74     0  01:09           0      0.0138       4.973
  YS02001884           JUNCTION      0.00   259.09     0  01:09           0      0.0503       4.330
  YS02001887           JUNCTION  14391.22 14391.54     0  01:49        17.6        17.7       0.023
  YS02001890           JUNCTION      0.00  2052.03     0  01:50           0        9.39       0.053
  YS02001895           JUNCTION      0.00   607.32     0  01:09           0        3.68       0.089
  YS02001898           JUNCTION      0.00   589.55     0  01:10           0        3.68      -0.049
  YS02001901           JUNCTION      0.00   593.02     0  01:10           0        3.69       0.088
  YS02001904           JUNCTION      0.00   594.83     0  01:10           0        3.71       0.069
  YS02001907           JUNCTION      0.00  4675.75     0  02:09           0        23.2       0.077
  YS02001910           JUNCTION      0.00  1993.23     0  01:52           0        12.7       0.058
  YS02001915           JUNCTION  18625.18 19846.88     0  01:49        24.8        31.1       0.002
  YS02001918           JUNCTION      0.00  1683.00     0  02:09           0        7.54       0.003
  YS02001920           JUNCTION      2.87  1682.36     0  02:09      0.0818        7.51       0.013
  YS02001923           JUNCTION      0.04  1680.59     0  02:09     0.00107        7.41      -0.015
  YS02001926           JUNCTION      0.05  1680.93     0  02:09     0.00149        7.39      -0.053
  YS02001929           JUNCTION   9370.01  9370.01     0  01:49          13          13      -0.012
  YS02006553           JUNCTION      0.00  2161.41     0  01:50           0        8.25       0.144
  YS02006556           JUNCTION      0.00  2163.32     0  01:57           0        8.27       0.102
  YS02006558           JUNCTION  20553.44 20553.44     0  01:49        26.1        27.5       0.012
  YS02006561           JUNCTION      0.00  1323.35     0  01:57           0        9.53      -0.000
  YS02163301           JUNCTION      0.00  1138.95     0  02:02           0        7.47       0.019
  YS02163601           JUNCTION      0.11  1338.86     0  01:10     0.00313        7.33       0.065
  YS02164001           JUNCTION      0.00  1335.88     0  01:10           0        7.34       0.031
  CC-1                 OUTFALL       0.00   683.00     0  01:19           0        6.39       0.000
  CC-2                 OUTFALL       0.00   683.00     0  00:00           0        8.63       0.000
  JK-1                 OUTFALL       0.00  1000.00     0  00:00           0        8.35       0.000
  JK-2                 OUTFALL       0.00  1000.00     0  01:45           0      0.0748       0.000
  WSC                  OUTFALL       0.00   553.12     0  02:22           0        6.14       0.000
  CC-storage           STORAGE       0.00  3504.46     0  01:13           0        22.3      -0.124
  JK-storage           STORAGE       0.00  1435.64     0  01:45           0        9.72      -0.277
  
  
  **********************
  Node Surcharge Summary
  **********************
  
  Surcharging occurs when water rises above the top of the highest conduit.
  ---------------------------------------------------------------------
                                               Max. Height   Min. Depth
                                   Hours       Above Crown    Below Rim
  Node                 Type      Surcharged         Meters       Meters
  ---------------------------------------------------------------------
  WS02006109           JUNCTION        2.93          0.444        1.376
  WS02006110           JUNCTION        0.70          0.414        1.436
  WS02006112           JUNCTION        1.11          0.072        1.608
  WS02006228           JUNCTION        2.93          0.336        1.864
  WS02006229           JUNCTION        2.93          0.405        2.045
  WS02006230           JUNCTION        0.55          0.269        1.301
  WS02006231           JUNCTION        1.10          1.155        0.375
  WS02006232           JUNCTION        2.95          1.078        0.402
  WS02006234           JUNCTION        1.37          1.240        0.000
  WS02006235           JUNCTION        2.72          1.290        0.000
  WS02006238           JUNCTION        2.87          1.337        0.093
  WS02006239           JUNCTION        2.84          1.241        0.049
  WS02006240           JUNCTION        2.93          1.091        0.299
  WS02006242           JUNCTION        2.97          0.820        0.000
  WS02006243           JUNCTION        2.92          0.697        0.073
  WS02006245           JUNCTION        2.92          0.631        0.219
  WS02006247           JUNCTION        2.92          0.579        0.181
  WS02006248           JUNCTION        2.91          0.380        0.000
  WS02006249           JUNCTION        2.91          0.390        0.000
  WS02006251           JUNCTION        1.28          0.459        0.721
  WS02006252           JUNCTION        3.08          1.100        0.000
  WS02006256           JUNCTION        4.42          2.050        0.000
  YS02001580           JUNCTION        2.13          0.450        0.000
  YS02001583           JUNCTION        2.13          0.500        0.000
  YS02001586           JUNCTION        2.20          0.510        0.000
  YS02001590           JUNCTION        2.25          0.750        0.000
  YS02001593           JUNCTION        2.25          0.799        0.041
  YS02001596           JUNCTION        2.31          1.017        0.053
  YS02001600           JUNCTION        2.40          1.190        0.000
  YS02001601           JUNCTION        2.59          1.440        0.000
  YS02001602           JUNCTION        2.54          1.270        0.000
  YS02001605           JUNCTION        2.52          1.180        0.000
  YS02001607           JUNCTION        2.25          0.680        0.000
  YS02001610           JUNCTION        2.27          0.680        0.000
  YS02001613           JUNCTION        2.25          0.700        0.000
  YS02001616           JUNCTION        2.22          0.610        0.000
  YS02001619           JUNCTION        2.21          0.610        0.000
  YS02001622           JUNCTION        2.22          0.620        0.000
  YS02001625           JUNCTION        2.36          0.780        0.000
  YS02001629           JUNCTION        2.19          0.470        0.000
  YS02001633           JUNCTION        2.41          1.060        0.000
  YS02001641           JUNCTION        2.42          1.001        0.099
  YS02001644           JUNCTION        2.41          0.920        0.000
  YS02001647           JUNCTION        2.27          0.803        0.097
  YS02001649           JUNCTION        2.41          1.050        0.000
  YS02001652           JUNCTION        2.25          1.130        0.000
  YS02001655           JUNCTION        2.11          1.200        0.000
  YS02001658           JUNCTION        1.88          1.300        0.000
  YS02001661           JUNCTION        1.53          1.390        0.000
  YS02001664           JUNCTION        1.04          1.310        0.000
  YS02001745           JUNCTION        1.07          1.350        0.000
  YS02001748           JUNCTION        1.84          1.190        0.000
  YS02001751           JUNCTION        2.05          1.200        0.000
  YS02001754           JUNCTION        2.19          1.150        0.000
  YS02001757           JUNCTION        2.49          1.210        0.000
  YS02001759           JUNCTION        2.41          1.210        0.000
  YS02001762           JUNCTION        2.38          1.150        0.000
  YS02001765           JUNCTION        2.34          1.096        0.004
  YS02001767           JUNCTION        2.32          1.024        0.006
  YS02001770           JUNCTION        2.29          0.920        0.000
  YS02001774           JUNCTION        2.36          1.050        0.000
  YS02001779           JUNCTION        2.18          0.680        0.000
  YS02001783           JUNCTION        1.99          0.692        0.908
  YS02001784           JUNCTION        1.98          0.519        0.971
  YS02001786           JUNCTION        1.92          0.202        1.228
  YS02001882           JUNCTION        1.97          0.830        0.000
  YS02001884           JUNCTION        1.97          0.870        0.000
  YS02001887           JUNCTION        1.99          0.950        0.000
  YS02001890           JUNCTION        1.99          0.760        0.000
  YS02001895           JUNCTION        1.95          0.750        0.000
  YS02001898           JUNCTION        1.95          0.740        0.000
  YS02001901           JUNCTION        1.98          0.870        0.000
  YS02001904           JUNCTION        1.97          0.824        0.026
  YS02001907           JUNCTION        2.08          0.950        0.000
  YS02001910           JUNCTION        2.01          1.084        0.016
  YS02001915           JUNCTION        1.96          1.000        0.000
  YS02001918           JUNCTION        1.91          0.810        0.000
  YS02001920           JUNCTION        1.92          1.102        0.038
  YS02001923           JUNCTION        1.67          0.820        0.000
  YS02001926           JUNCTION        1.75          0.900        0.000
  YS02001929           JUNCTION        1.37          0.780        0.000
  YS02006553           JUNCTION        2.09          1.139        0.051
  YS02006556           JUNCTION        2.05          1.301        0.049
  YS02006558           JUNCTION        2.04          1.400        0.000
  YS02006561           JUNCTION        1.88          0.423        0.727
  YS02163301           JUNCTION        2.40          1.030        0.000
  YS02163601           JUNCTION        2.46          1.080        0.000
  YS02164001           JUNCTION        2.41          0.985        0.115
  
  
  *********************
  Node Flooding Summary
  *********************
  
  Flooding refers to all water that overflows a node, whether it ponds or not.
  --------------------------------------------------------------------------
                                                             Total   Maximum
                                 Maximum   Time of Max       Flood    Ponded
                        Hours       Rate    Occurrence      Volume     Depth
  Node                 Flooded       LPS   days hr:min    10^6 ltr    Meters
  --------------------------------------------------------------------------
  WS02006234              0.01    149.81      0  02:30       0.000     0.000
  WS02006235              0.01     12.20      0  02:30       0.000     0.000
  WS02006242              0.01     23.35      0  02:30       0.000     0.000
  WS02006248              0.10     23.52      0  02:21       0.004     0.000
  WS02006249              1.23     86.83      0  01:43       0.221     0.000
  WS02006252              0.01    124.16      0  01:16       0.000     0.000
  WS02006256              1.22    289.72      0  02:57       0.508     0.000
  YS02001580              0.01    145.03      0  01:08       0.001     0.000
  YS02001583              0.01    146.09      0  01:08       0.000     0.000
  YS02001586              2.07  16747.37      0  01:50      24.357     0.000
  YS02001590              0.01      4.61      0  01:09       0.000     0.000
  YS02001600              0.01      9.03      0  01:09       0.000     0.000
  YS02001601              2.13  25911.01      0  01:49      34.151     0.000
  YS02001602              2.10     62.05      0  02:54       0.461     0.000
  YS02001605              0.01     13.56      0  01:10       0.000     0.000
  YS02001607              0.01    263.53      0  01:10       0.001     0.000
  YS02001610              2.06    955.16      0  02:24       6.191     0.000
  YS02001613              0.01    259.78      0  01:09       0.000     0.000
  YS02001616              0.75    173.94      0  01:09       0.004     0.000
  YS02001619              1.53  27687.49      0  01:50      32.170     0.000
  YS02001622              0.01      6.32      0  03:09       0.000     0.000
  YS02001625              2.05   1505.29      0  02:03       9.861     0.000
  YS02001629              1.62    686.86      0  02:01       2.884     0.000
  YS02001633              0.91  17425.63      0  01:49      14.852     0.000
  YS02001644              1.84  18962.97      0  01:49      30.785     0.000
  YS02001649              1.01   2390.45      0  02:05       6.596     0.000
  YS02001652              0.01      3.24      0  01:53       0.000     0.000
  YS02001655              0.68    303.30      0  02:08       0.698     0.000
  YS02001658              0.61    339.80      0  01:12       0.113     0.000
  YS02001661              0.01      3.86      0  01:53       0.000     0.000
  YS02001664              0.60  13773.59      0  01:49       9.351     0.000
  YS02001745              0.32   6852.04      0  01:49       3.091     0.000
  YS02001748              0.43    770.11      0  01:54       1.016     0.000
  YS02001751              0.01      0.68      0  02:00       0.000     0.000
  YS02001754              0.01      0.43      0  01:53       0.000     0.000
  YS02001757              0.56    707.17      0  02:04       0.810     0.000
  YS02001759              0.63  11773.07      0  01:49       7.853     0.000
  YS02001762              0.34      3.20      0  02:09       0.001     0.000
  YS02001770              1.35  20108.60      0  01:49      21.851     0.000
  YS02001774              0.01      0.65      0  02:09       0.000     0.000
  YS02001779              1.83    851.50      0  02:11       5.000     0.000
  YS02001882              0.02     49.38      0  01:10       0.000     0.000
  YS02001884              0.07      0.93      0  01:33       0.000     0.000
  YS02001887              0.66  12332.17      0  01:49       8.238     0.000
  YS02001890              1.78   1539.89      0  01:53       5.701     0.000
  YS02001895              0.01     92.40      0  01:09       0.000     0.000
  YS02001898              0.01    303.16      0  01:09       0.001     0.000
  YS02001901              0.01     70.12      0  01:09       0.000     0.000
  YS02001907              1.88   4674.62      0  02:09      21.712     0.000
  YS02001915              1.22  17846.69      0  01:49      18.356     0.000
  YS02001918              0.80    460.95      0  02:09       1.144     0.000
  YS02001923              0.01    193.84      0  01:11       0.001     0.000
  YS02001926              0.01    494.81      0  01:11       0.004     0.000
  YS02001929              0.62   7691.65      0  01:49       5.666     0.000
  YS02006558              0.59  17061.21      0  01:49      11.170     0.000
  YS02163301              0.01      0.82      0  01:53       0.000     0.000
  YS02163601              0.01      0.70      0  02:18       0.000     0.000
  CC-storage              0.90    852.88      0  02:09       0.931     0.000
  
  
  **********************
  Storage Volume Summary
  **********************
  
  ------------------------------------------------------------------------------------------------
                         Average    Avg   Evap  Exfil     Maximum    Max    Time of Max    Maximum
                          Volume   Pcnt   Pcnt   Pcnt      Volume   Pcnt     Occurrence    Outflow
  Storage Unit           1000 m³   Full   Loss   Loss     1000 m³   Full    days hr:min        LPS
  ------------------------------------------------------------------------------------------------
  CC-storage               3.479   54.3    0.0    0.0       6.410  100.0       0  02:09    1766.00
  JK-storage               0.097   33.1    0.0    0.0       0.216   74.2       0  01:56    2300.00
  
  
  ***********************
  Outfall Loading Summary
  ***********************
  
  -----------------------------------------------------------
                         Flow       Avg       Max       Total
                         Freq      Flow      Flow      Volume
  Outfall Node           Pcnt       LPS       LPS    10^6 ltr
  -----------------------------------------------------------
  CC-1                  42.05    683.00    683.00       6.388
  CC-2                  69.75    683.00    683.00       8.635
  JK-1                  43.12    964.07   1000.00       8.351
  JK-2                   0.31   1000.00   1000.00       0.075
  WSC                   99.96    278.49    553.12       6.136
  -----------------------------------------------------------
  System                51.04   3608.56   3918.28      29.585
  
  
  ********************
  Link Flow Summary
  ********************
  
  -----------------------------------------------------------------------------
                                 Maximum  Time of Max   Maximum    Max/    Max/
                                  |Flow|   Occurrence   |Veloc|    Full    Full
  Link                 Type          LPS  days hr:min     m/sec    Flow   Depth
  -----------------------------------------------------------------------------
  1                    CONDUIT    553.12     0  02:22      2.82    0.19    0.30
  WS02003060WS02003069 CONDUIT    551.13     0  02:02      1.64    0.22    0.34
  WS02003066WSF200     CONDUIT    534.56     0  02:02      2.85    0.09    0.22
  WS02003067WS02003066 CONDUIT    534.48     0  02:02      1.20    0.17    0.42
  WS02003069WS02003072 CONDUIT    551.34     0  02:21      1.37    0.27    0.39
  WS02003072WS02003073 CONDUIT    551.32     0  02:21      1.43    1.19    0.37
  WS02004401WS02004402 CONDUIT    537.96     0  02:11      0.96    0.65    0.86
  WS02004402WS02004403 CONDUIT    537.32     0  02:11      0.99    0.77    0.88
  WS02004403WS02004404 CONDUIT    536.45     0  01:59      0.98    0.39    0.93
  WS02004404WS02004405 CONDUIT    536.82     0  02:11      1.11    5.26    0.96
  WS02004405WS02004406 CONDUIT    537.64     0  02:11      1.02    1.06    0.95
  WS02004406WS02004407 CONDUIT    536.02     0  01:59      1.04    0.24    0.63
  WS02004407WS02004409 CONDUIT    535.38     0  02:00      1.54    0.19    0.48
  WS02004409WS02004410 CONDUIT    535.13     0  01:47      1.03    0.69    0.67
  WS02004410WS02004411 CONDUIT    534.94     0  01:47      0.94    0.73    0.68
  WS02004411WS02004412 CONDUIT    534.81     0  01:48      0.92    0.76    0.69
  WS02004412WS02004413 CONDUIT    534.84     0  01:48      0.83    0.36    0.78
  WS02004413WS02003067 CONDUIT    534.49     0  02:19      1.11    0.23    0.59
  WS02006109WS02006110 CONDUIT    560.68     0  03:06      1.12    1.08    1.00
  WS02006110WS02006113 CONDUIT    567.75     0  03:06      1.37    0.52    0.79
  WS02006111WS02006112 CONDUIT    543.04     0  02:20      1.59    0.26    0.67
  WS02006112WS02006115 CONDUIT    549.55     0  02:54      0.83    0.32    0.87
  WS02006113WS02006111 CONDUIT    561.94     0  02:07      2.47    0.67    0.46
  WS02006115WS02006116 CONDUIT    539.39     0  01:58      1.06    0.69    0.76
  WS02006116WS02004401 CONDUIT    538.10     0  02:10      0.96    0.74    0.84
  WS02006228WS02006109 CONDUIT    558.58     0  03:06      1.11    2.44    1.00
  WS02006229WS02006228 CONDUIT    557.66     0  03:06      1.11    1.85    1.00
  WS02006230WS02006229 CONDUIT    556.90     0  03:06      1.45   12.39    1.00
  WS02006231WS02006230 CONDUIT    586.58     0  02:44      1.60    8.90    1.00
  WS02006232WS02006231 CONDUIT    594.17     0  02:55      1.55    1.25    1.00
  WS02006234WS02006232 CONDUIT    592.96     0  02:55      1.54    1.20    1.00
  WS02006235WS02006234 CONDUIT    587.94     0  01:28      1.53    6.20    1.00
  WS02006238WS02006235 CONDUIT    432.03     0  03:03      1.28    0.96    1.00
  WS02006239WS02006238 CONDUIT    433.71     0  02:49      1.15    1.39    1.00
  WS02006240WS02006239 CONDUIT    432.81     0  02:49      1.31    1.36    1.00
  WS02006242WS02006240 CONDUIT    427.34     0  02:49      1.16    1.70    1.00
  WS02006243WS02006242 CONDUIT    427.76     0  02:49      1.35    0.91    1.00
  WS02006245WS02006243 CONDUIT    428.39     0  02:49      1.40    1.27    1.00
  WS02006247WS02006245 CONDUIT    429.23     0  02:49      1.37    3.40    1.00
  WS02006248WS02006247 CONDUIT    429.33     0  02:49      1.30    0.93    1.00
  WS02006249WS02006248 CONDUIT    429.44     0  02:49      1.36    2.35    1.00
  WS02006251WS02006249 CONDUIT    429.54     0  02:49      1.80    1.24    1.00
  WS02006252WS02006251 CONDUIT    410.73     0  02:36      3.87    1.51    1.00
  WS02006256WS02006235 CONDUIT    218.67     0  01:26      3.09    2.31    1.00
  WSF200WS02003060     CONDUIT    534.89     0  02:02      2.06    0.12    0.28
  YS02001580YS02001583 CONDUIT    207.08     0  01:08      0.95    0.80    1.00
  YS02001583YS02001586 CONDUIT    234.86     0  01:08      1.06    0.36    1.00
  YS02001586YS02001590 CONDUIT    318.68     0  01:55      1.36    0.56    1.00
  YS02001590YS02001593 CONDUIT    318.42     0  02:32      1.13    2.00    1.00
  YS02001593YS02001596 CONDUIT    318.07     0  01:46      1.74    0.50    1.00
  YS02001596YS02001600 CONDUIT    318.11     0  03:09      1.30    0.62    1.00
  YS02001600YS02001601 CONDUIT    318.26     0  01:57      1.13    0.55    1.00
  YS02001601YS02001602 CONDUIT    609.57     0  01:08      2.16    2.20    1.00
  YS02001602YS02001605 CONDUIT    609.85     0  01:08      2.16   12.91    1.00
  YS02001605YS02001607 CONDUIT    609.40     0  01:08      2.16    3.34    1.00
  YS02001607YS02001610 CONDUIT    618.49     0  01:08      0.96    0.59    1.00
  YS02001610YS02001613 CONDUIT    619.06     0  02:24      0.85    0.71    1.00
  YS02001613YS02001616 CONDUIT    619.55     0  02:24      0.88    0.53    1.00
  YS02001616YS02001619 CONDUIT    619.53     0  02:24      0.93    1.08    1.00
  YS02001619YS02001622 CONDUIT   1054.04     0  01:54      1.92    1.55    1.00
  YS02001622YS02001625 CONDUIT   1053.74     0  02:03      1.35    0.56    1.00
  YS02001625YS02001629 CONDUIT    794.07     0  01:10      1.11    0.38    1.00
  YS02001629YS02163301 CONDUIT   1139.06     0  01:48      1.45    1.40    1.00
  YS02001633YS02163601 CONDUIT   1338.75     0  01:10      1.70    1.41    1.00
  YS02001641YS02001644 CONDUIT   1336.86     0  01:10      1.70    4.32    1.00
  YS02001644YS02001647 CONDUIT   1858.04     0  01:10      2.37    1.09    1.00
  YS02001647YS02001649 CONDUIT   1874.29     0  01:10      2.39    0.99    1.00
  YS02001649YS02001757 CONDUIT   2192.11     0  01:11      2.79    1.33    1.00
  YS02001652YS02001649 CONDUIT   2429.38     0  02:08      3.09    1.20    1.00
  YS02001655YS02001652 CONDUIT   2431.75     0  01:53      3.10    1.18    1.00
  YS02001658YS02001655 CONDUIT   2731.29     0  01:54      3.48    1.16    1.00
  YS02001661YS02001658 CONDUIT   2783.88     0  02:02      3.54    1.09    1.00
  YS02001664YS02001661 CONDUIT   2786.95     0  01:53      3.55    0.87    1.00
  YS02001745YS02001748 CONDUIT   3122.08     0  01:52      3.98    1.20    1.00
  YS02001748YS02001751 CONDUIT   2354.39     0  01:45      3.00    1.19    1.00
  YS02001751YS02001754 CONDUIT   2354.85     0  01:45      3.00    1.14    1.00
  YS02001754YS02001757 CONDUIT   2354.72     0  01:45      3.00    0.95    1.00
  YS02001757CaochengTiaoxuchi CONDUIT   3504.46     0  01:13      4.66    1.52    1.00
  YS02001759YS02001757 CONDUIT   1515.80     0  01:36      1.93    1.08    1.00
  YS02001762YS02001759 CONDUIT    830.34     0  01:12      1.06    0.96    1.00
  YS02001765YS02001762 CONDUIT    828.45     0  01:12      1.05    0.78    1.00
  YS02001767YS02001765 CONDUIT    826.70     0  01:12      1.05    1.04    1.00
  YS02001770YS02001767 CONDUIT    824.79     0  01:12      1.05    3.27    1.00
  YS02001774YS02001770 CONDUIT    852.16     0  02:13      1.09    0.54    1.00
  YS02001779YS02001774 CONDUIT    851.80     0  01:54      1.08    0.43    1.00
  YS02001783YS02001784 CONDUIT   1322.17     0  01:47      2.63    1.82    1.00
  YS02001784YS02001785 CONDUIT   1323.14     0  01:42      2.63    3.08    1.00
  YS02001786YS02001788 CONDUIT   1323.50     0  01:57      2.74    2.55    0.93
  YS02001788YS02001790 CONDUIT   1345.68     0  02:03      2.93    0.99    0.92
  YS02001790YS02001791 CONDUIT   1418.38     0  01:59      3.57    1.54    0.76
  YS02001791YS02001793 CONDUIT   1445.05     0  01:59      6.79    0.62    0.53
  YS02001793JiankangQianchi CONDUIT   1435.64     0  01:45      7.64    0.11    0.70
  YS02001882YS02001884 CONDUIT    160.74     0  01:09      0.48    0.18    1.00
  YS02001884YS02001887 CONDUIT    259.09     0  01:09      0.43    0.35    1.00
  YS02001887YS02001890 CONDUIT   2052.03     0  01:50      2.61    3.51    1.00
  YS02001890YS02001895 CONDUIT    607.32     0  01:09      0.78    0.28    1.00
  YS02001895YS02001898 CONDUIT    589.55     0  01:10      0.81    1.02    1.00
  YS02001898YS02001901 CONDUIT    593.02     0  01:10      0.76    0.38    1.00
  YS02001901YS02001904 CONDUIT    594.83     0  01:10      0.76    0.92    1.00
  YS02001904YS02001907 CONDUIT    596.38     0  01:10      0.76    0.21    1.00
  YS02001907YS02006553 CONDUIT   2161.85     0  01:45      2.40    2.54    1.00
  YS02001910YS02001907 CONDUIT   1993.07     0  02:12      2.54    1.12    1.00
  YS02001915YS02001910 CONDUIT   1993.23     0  01:52      2.54    0.99    1.00
  YS02001918YS02001915 CONDUIT   1221.69     0  02:04      1.56    0.67    1.00
  YS02001920YS02001918 CONDUIT   1683.00     0  02:09      2.14    1.63    1.00
  YS02001923YS02001920 CONDUIT   1679.49     0  02:09      2.14    0.75    1.00
  YS02001926YS02001923 CONDUIT   1680.56     0  02:09      2.14    2.40    1.00
  YS02001929YS02001926 CONDUIT   1680.88     0  02:09      2.14    0.80    1.00
  YS02006553YS02006556 CONDUIT   2161.41     0  01:50      2.75    1.85    1.00
  YS02006556YS02006558 CONDUIT   2163.32     0  01:57      2.75    1.71    1.00
  YS02006558YS02006561 CONDUIT   1323.35     0  01:57      4.68    2.92    1.00
  YS02006561YS02001783 CONDUIT   1322.50     0  01:57      2.63    0.68    1.00
  YS02163301YS02001633 CONDUIT   1138.95     0  02:02      1.45    1.07    1.00
  YS02163601YS02164001 CONDUIT   1335.88     0  01:10      1.70    1.18    1.00
  YS02164001YS02001641 CONDUIT   1333.85     0  01:10      1.70    1.82    1.00
  CC-R1                PUMP       683.00     0  01:19              1.00
  CC-R2                PUMP       683.00     0  00:00              1.00
  CC-S1                PUMP       200.00     0  01:13              1.00
  CC-S2                PUMP       200.00     0  00:00              1.00
  JK-R1                PUMP      1000.00     0  00:00              1.00
  JK-R2                PUMP      1000.00     0  01:45              1.00
  JK-S                 PUMP       300.00     0  01:25              1.00
  
  
  ***************************
  Flow Classification Summary
  ***************************
  
  -------------------------------------------------------------------------------------
                      Adjusted    ---------- Fraction of Time in Flow Class ---------- 
                       /Actual         Up    Down  Sub   Sup   Up    Down  Norm  Inlet 
  Conduit               Length    Dry  Dry   Dry   Crit  Crit  Crit  Crit  Ltd   Ctrl  
  -------------------------------------------------------------------------------------
  1                       1.00   0.00  0.00  0.00  0.00  1.00  0.00  0.00  0.54  0.00
  WS02003060WS02003069    1.00   0.00  0.00  0.00  0.98  0.02  0.00  0.00  0.60  0.00
  WS02003066WSF200        1.00   0.08  0.00  0.00  0.00  0.92  0.00  0.00  0.77  0.00
  WS02003067WS02003066    1.00   0.07  0.01  0.00  0.92  0.00  0.00  0.00  0.00  0.00
  WS02003069WS02003072    1.00   0.00  0.00  0.00  0.99  0.01  0.00  0.00  0.61  0.00
  WS02003072WS02003073    1.00   0.00  0.00  0.00  0.00  0.00  0.00  1.00  0.00  0.00
  WS02004401WS02004402    1.00   0.03  0.00  0.00  0.97  0.00  0.00  0.00  0.00  0.00
  WS02004402WS02004403    1.00   0.03  0.00  0.00  0.97  0.00  0.00  0.00  0.00  0.00
  WS02004403WS02004404    1.00   0.00  0.04  0.00  0.96  0.00  0.00  0.00  0.00  0.00
  WS02004404WS02004405    1.00   0.00  0.00  0.00  1.00  0.00  0.00  0.00  0.00  0.00
  WS02004405WS02004406    1.00   0.00  0.00  0.00  1.00  0.00  0.00  0.00  0.01  0.00
  WS02004406WS02004407    1.00   0.00  0.05  0.00  0.95  0.00  0.00  0.00  0.00  0.00
  WS02004407WS02004409    1.00   0.05  0.00  0.00  0.94  0.01  0.00  0.00  0.94  0.00
  WS02004409WS02004410    1.00   0.05  0.00  0.00  0.95  0.00  0.00  0.00  0.00  0.00
  WS02004410WS02004411    1.00   0.05  0.00  0.00  0.95  0.00  0.00  0.00  0.00  0.00
  WS02004411WS02004412    1.00   0.05  0.00  0.00  0.95  0.00  0.00  0.00  0.00  0.00
  WS02004412WS02004413    1.00   0.06  0.00  0.00  0.94  0.00  0.00  0.00  0.00  0.00
  WS02004413WS02003067    1.00   0.06  0.01  0.00  0.00  0.00  0.93  0.00  0.00  0.00
  WS02006109WS02006110    1.00   0.00  0.01  0.00  0.98  0.00  0.01  0.00  0.00  0.00
  WS02006110WS02006113    1.00   0.01  0.01  0.00  0.97  0.00  0.00  0.00  0.00  0.00
  WS02006111WS02006112    1.00   0.03  0.00  0.00  0.97  0.00  0.00  0.00  0.97  0.00
  WS02006112WS02006115    1.00   0.03  0.00  0.00  0.96  0.00  0.00  0.00  0.00  0.00
  WS02006113WS02006111    1.00   0.03  0.00  0.00  0.00  0.97  0.00  0.00  0.16  0.00
  WS02006115WS02006116    1.00   0.03  0.00  0.00  0.96  0.00  0.00  0.01  0.00  0.00
  WS02006116WS02004401    1.00   0.03  0.00  0.00  0.97  0.00  0.00  0.00  0.00  0.00
  WS02006228WS02006109    1.00   0.00  0.00  0.00  1.00  0.00  0.00  0.00  0.00  0.00
  WS02006229WS02006228    1.00   0.00  0.00  0.00  0.99  0.00  0.00  0.01  0.00  0.00
  WS02006230WS02006229    1.00   0.00  0.00  0.00  0.98  0.00  0.00  0.02  0.00  0.00
  WS02006231WS02006230    1.00   0.01  0.00  0.00  0.38  0.00  0.61  0.00  0.00  0.00
  WS02006232WS02006231    1.00   0.01  0.00  0.00  0.98  0.00  0.01  0.00  0.00  0.00
  WS02006234WS02006232    1.00   0.01  0.00  0.00  0.99  0.00  0.00  0.00  0.33  0.00
  WS02006235WS02006234    1.00   0.01  0.00  0.00  0.62  0.00  0.37  0.00  0.00  0.00
  WS02006238WS02006235    1.00   0.01  0.00  0.00  0.99  0.00  0.00  0.00  0.00  0.00
  WS02006239WS02006238    1.00   0.01  0.00  0.00  0.99  0.00  0.00  0.00  0.43  0.00
  WS02006240WS02006239    1.00   0.01  0.00  0.00  0.53  0.00  0.00  0.47  0.01  0.00
  WS02006242WS02006240    1.00   0.00  0.00  0.00  0.98  0.00  0.01  0.00  0.00  0.00
  WS02006243WS02006242    1.00   0.00  0.00  0.00  0.99  0.00  0.00  0.01  0.51  0.00
  WS02006245WS02006243    1.00   0.00  0.00  0.00  0.59  0.00  0.00  0.41  0.00  0.00
  WS02006247WS02006245    1.00   0.00  0.00  0.00  0.99  0.00  0.00  0.01  0.00  0.00
  WS02006248WS02006247    1.00   0.00  0.00  0.00  0.99  0.00  0.00  0.01  0.13  0.00
  WS02006249WS02006248    1.00   0.00  0.00  0.00  0.48  0.00  0.52  0.00  0.00  0.00
  WS02006251WS02006249    1.00   0.00  0.00  0.00  1.00  0.00  0.00  0.00  0.52  0.00
  WS02006252WS02006251    1.00   0.00  0.53  0.00  0.16  0.00  0.30  0.00  0.00  0.00
  WS02006256WS02006235    1.00   0.01  0.00  0.00  0.99  0.00  0.00  0.00  0.00  0.00
  WSF200WS02003060        1.00   0.00  0.08  0.00  0.41  0.51  0.00  0.00  0.50  0.00
  YS02001580YS02001583    1.00   0.14  0.48  0.00  0.38  0.00  0.00  0.00  0.57  0.00
  YS02001583YS02001586    1.00   0.35  0.22  0.00  0.43  0.00  0.00  0.00  0.58  0.00
  YS02001586YS02001590    1.00   0.13  0.00  0.00  0.54  0.03  0.00  0.29  0.28  0.00
  YS02001590YS02001593    1.00   0.13  0.00  0.00  0.29  0.00  0.58  0.00  0.00  0.00
  YS02001593YS02001596    1.00   0.13  0.00  0.00  0.30  0.01  0.00  0.56  0.01  0.00
  YS02001596YS02001600    1.00   0.13  0.00  0.00  0.34  0.01  0.00  0.53  0.02  0.00
  YS02001600YS02001601    1.00   0.13  0.00  0.00  0.87  0.00  0.00  0.00  0.50  0.00
  YS02001601YS02001602    1.00   0.13  0.00  0.00  0.87  0.00  0.00  0.00  0.00  0.00
  YS02001602YS02001605    1.00   0.13  0.00  0.00  0.87  0.00  0.00  0.00  0.00  0.00
  YS02001605YS02001607    1.00   0.13  0.00  0.00  0.87  0.00  0.00  0.00  0.00  0.00
  YS02001607YS02001610    1.00   0.13  0.00  0.00  0.87  0.00  0.00  0.00  0.00  0.00
  YS02001610YS02001613    1.00   0.13  0.00  0.00  0.87  0.00  0.00  0.00  0.00  0.00
  YS02001613YS02001616    1.00   0.13  0.00  0.00  0.87  0.00  0.00  0.00  0.00  0.00
  YS02001616YS02001619    1.00   0.13  0.00  0.00  0.87  0.00  0.00  0.00  0.00  0.00
  YS02001619YS02001622    1.00   0.13  0.00  0.00  0.87  0.00  0.00  0.00  0.22  0.00
  YS02001622YS02001625    1.00   0.13  0.00  0.00  0.87  0.01  0.00  0.00  0.00  0.00
  YS02001625YS02001629    1.00   0.13  0.01  0.00  0.33  0.00  0.53  0.00  0.00  0.00
  YS02001629YS02163301    1.00   0.13  0.00  0.00  0.87  0.00  0.00  0.00  0.00  0.00
  YS02001633YS02163601    1.00   0.00  0.01  0.00  0.99  0.00  0.00  0.00  0.12  0.00
  YS02001641YS02001644    1.00   0.00  0.01  0.00  0.99  0.00  0.00  0.00  0.00  0.00
  YS02001644YS02001647    1.00   0.00  0.13  0.00  0.87  0.00  0.00  0.00  0.00  0.00
  YS02001647YS02001649    1.00   0.00  0.13  0.00  0.64  0.23  0.00  0.00  0.50  0.00
  YS02001649YS02001757    1.00   0.00  0.00  0.00  0.77  0.23  0.00  0.00  0.30  0.00
  YS02001652YS02001649    1.00   0.00  0.00  0.00  0.99  0.01  0.00  0.00  0.61  0.00
  YS02001655YS02001652    1.00   0.00  0.00  0.00  0.36  0.00  0.00  0.64  0.02  0.00
  YS02001658YS02001655    1.00   0.00  0.13  0.00  0.83  0.04  0.00  0.00  0.53  0.00
  YS02001661YS02001658    1.00   0.13  0.00  0.00  0.68  0.19  0.00  0.00  0.56  0.00
  YS02001664YS02001661    1.00   0.13  0.00  0.00  0.85  0.02  0.00  0.00  0.62  0.00
  YS02001745YS02001748    1.00   0.00  0.00  0.00  0.32  0.00  0.00  0.68  0.03  0.00
  YS02001748YS02001751    1.00   0.00  0.00  0.00  0.98  0.02  0.00  0.00  0.64  0.00
  YS02001751YS02001754    1.00   0.00  0.00  0.00  0.36  0.00  0.00  0.64  0.02  0.00
  YS02001754YS02001757    1.00   0.00  0.00  0.00  1.00  0.00  0.00  0.00  0.63  0.00
  YS02001757CaochengTiaoxuchi    1.00   0.00  0.00  0.00  0.98  0.02  0.00  0.00  0.60  0.00
  YS02001759YS02001757    1.00   0.00  0.00  0.00  0.99  0.01  0.00  0.00  0.55  0.00
  YS02001762YS02001759    1.00   0.00  0.00  0.00  1.00  0.00  0.00  0.00  0.01  0.00
  YS02001765YS02001762    1.00   0.00  0.00  0.00  1.00  0.00  0.00  0.00  0.59  0.00
  YS02001767YS02001765    1.00   0.00  0.00  0.00  1.00  0.00  0.00  0.00  0.00  0.00
  YS02001770YS02001767    1.00   0.00  0.00  0.00  1.00  0.00  0.00  0.00  0.00  0.00
  YS02001774YS02001770    1.00   0.00  0.13  0.00  0.75  0.00  0.12  0.00  0.00  0.00
  YS02001779YS02001774    1.00   0.00  0.00  0.00  1.00  0.00  0.00  0.00  0.62  0.00
  YS02001783YS02001784    1.00   0.00  0.14  0.00  0.86  0.00  0.00  0.00  0.51  0.00
  YS02001784YS02001785    1.00   0.00  0.00  0.00  1.00  0.00  0.00  0.00  0.12  0.00
  YS02001786YS02001788    1.00   0.00  0.00  0.00  0.89  0.11  0.00  0.00  0.00  0.00
  YS02001788YS02001790    1.00   0.00  0.00  0.00  0.26  0.74  0.00  0.00  0.71  0.00
  YS02001790YS02001791    1.00   0.00  0.00  0.00  0.01  0.99  0.00  0.00  0.09  0.00
  YS02001791YS02001793    1.00   0.00  0.00  0.00  0.00  1.00  0.00  0.00  0.06  0.00
  YS02001793JiankangQianchi    1.00   0.00  0.00  0.00  0.52  0.48  0.00  0.00  0.34  0.00
  YS02001882YS02001884    1.00   0.13  0.00  0.00  0.87  0.00  0.00  0.00  0.00  0.00
  YS02001884YS02001887    1.00   0.06  0.05  0.00  0.89  0.00  0.00  0.00  0.00  0.00
  YS02001887YS02001890    1.00   0.00  0.00  0.00  0.97  0.00  0.03  0.00  0.00  0.00
  YS02001890YS02001895    1.00   0.00  0.13  0.00  0.87  0.00  0.00  0.00  0.00  0.00
  YS02001895YS02001898    1.00   0.13  0.00  0.00  0.86  0.00  0.01  0.00  0.00  0.00
  YS02001898YS02001901    1.00   0.13  0.00  0.00  0.87  0.00  0.00  0.00  0.00  0.00
  YS02001901YS02001904    1.00   0.13  0.00  0.00  0.87  0.00  0.00  0.00  0.00  0.00
  YS02001904YS02001907    1.00   0.00  0.13  0.00  0.87  0.00  0.00  0.00  0.00  0.00
  YS02001907YS02006553    1.00   0.00  0.02  0.00  0.98  0.00  0.00  0.00  0.00  0.00
  YS02001910YS02001907    1.00   0.00  0.00  0.00  0.97  0.00  0.00  0.03  0.10  0.00
  YS02001915YS02001910    1.00   0.00  0.00  0.00  0.98  0.02  0.00  0.00  0.11  0.00
  YS02001918YS02001915    1.00   0.00  0.01  0.00  0.98  0.02  0.00  0.00  0.60  0.00
  YS02001920YS02001918    1.00   0.00  0.01  0.00  0.99  0.00  0.00  0.00  0.00  0.00
  YS02001923YS02001920    1.00   0.00  0.00  0.00  1.00  0.00  0.00  0.00  0.74  0.00
  YS02001926YS02001923    1.00   0.00  0.07  0.00  0.25  0.00  0.68  0.00  0.00  0.00
  YS02001929YS02001926    1.00   0.00  0.13  0.00  0.87  0.00  0.00  0.00  0.62  0.00
  YS02006553YS02006556    1.00   0.01  0.00  0.00  0.99  0.00  0.00  0.00  0.03  0.00
  YS02006556YS02006558    1.00   0.00  0.00  0.00  1.00  0.00  0.00  0.00  0.00  0.00
  YS02006558YS02006561    1.00   0.14  0.00  0.00  0.25  0.62  0.00  0.00  0.13  0.00
  YS02006561YS02001783    1.00   0.14  0.00  0.00  0.26  0.60  0.00  0.00  0.59  0.00
  YS02163301YS02001633    1.00   0.00  0.13  0.00  0.87  0.00  0.00  0.00  0.00  0.00
  YS02163601YS02164001    1.00   0.00  0.08  0.00  0.92  0.00  0.00  0.00  0.00  0.00
  YS02164001YS02001641    1.00   0.01  0.07  0.00  0.92  0.00  0.00  0.00  0.05  0.00
  
  
  *************************
  Conduit Surcharge Summary
  *************************
  
  ----------------------------------------------------------------------------
                                                           Hours        Hours 
                         --------- Hours Full --------   Above Full   Capacity
  Conduit                Both Ends  Upstream  Dnstream   Normal Flow   Limited
  ----------------------------------------------------------------------------
  WS02003072WS02003073        0.01      0.01      0.01      1.59         0.01
  WS02004404WS02004405        0.01      0.01      0.01      3.51         0.01
  WS02004405WS02004406        0.01      0.01      0.01      0.84         0.01
  WS02006109WS02006110        0.70      0.70      2.95      0.89         0.01
  WS02006110WS02006113        0.01      0.01      2.94      0.01         0.01
  WS02006111WS02006112        0.01      0.01      3.06      0.01         0.01
  WS02006112WS02006115        0.01      0.01      1.11      0.01         0.01
  WS02006228WS02006109        2.93      2.95      2.93      3.18         2.93
  WS02006229WS02006228        2.93      2.93      2.93      3.06         2.92
  WS02006230WS02006229        2.98      3.02      2.98      3.87         2.98
  WS02006231WS02006230        0.54      0.54      1.26      3.73         0.01
  WS02006232WS02006231        1.09      1.09      2.95      1.23         0.01
  WS02006234WS02006232        2.68      2.68      2.95      1.18         1.03
  WS02006235WS02006234        1.34      1.37      2.71      3.65         0.09
  WS02006238WS02006235        2.76      2.76      2.94      0.01         0.04
  WS02006239WS02006238        2.87      2.94      2.87      3.05         2.54
  WS02006240WS02006239        2.84      2.93      2.84      3.05         2.45
  WS02006242WS02006240        2.93      2.93      2.99      3.12         0.01
  WS02006243WS02006242        2.92      2.92      2.97      0.01         0.21
  WS02006245WS02006243        2.92      2.92      2.92      2.46         2.13
  WS02006247WS02006245        2.92      2.93      2.92      3.64         2.83
  WS02006248WS02006247        2.92      2.92      2.92      0.01         0.25
  WS02006249WS02006248        2.91      2.91      2.91      3.62         0.01
  WS02006251WS02006249        2.91      2.92      2.91      3.06         2.48
  WS02006252WS02006251        2.95      3.00      2.97      3.08         0.01
  WS02006256WS02006235        3.55      3.69      4.28      1.24         0.02
  YS02001580YS02001583        2.13      2.13      2.14      0.01         0.01
  YS02001583YS02001586        2.13      2.13      2.20      0.01         0.01
  YS02001586YS02001590        2.20      2.20      2.25      0.01         0.01
  YS02001590YS02001593        2.25      2.25      2.26      2.30         0.01
  YS02001593YS02001596        2.25      2.25      2.31      0.01         0.01
  YS02001596YS02001600        2.33      2.33      2.40      0.01         0.01
  YS02001600YS02001601        2.44      2.44      2.59      0.01         0.01
  YS02001601YS02001602        2.54      2.54      2.61      2.35         0.01
  YS02001602YS02001605        2.52      2.52      2.54      3.09         0.01
  YS02001605YS02001607        2.50      2.52      2.53      2.46         2.42
  YS02001607YS02001610        2.25      2.25      2.27      0.01         0.01
  YS02001610YS02001613        2.25      2.25      2.27      0.01         0.01
  YS02001613YS02001616        2.22      2.22      2.25      0.01         0.01
  YS02001616YS02001619        2.21      2.21      2.22      1.55         0.81
  YS02001619YS02001622        2.21      2.21      2.22      2.17         2.08
  YS02001622YS02001625        2.22      2.22      2.36      0.01         0.01
  YS02001625YS02001629        2.19      2.19      2.36      0.01         0.01
  YS02001629YS02163301        2.38      2.38      2.40      1.12         0.03
  YS02001633YS02163601        2.41      2.41      2.46      0.05         0.12
  YS02001641YS02001644        2.41      2.42      2.41      2.65         2.36
  YS02001644YS02001647        2.28      2.28      2.41      0.03         0.01
  YS02001647YS02001649        2.28      2.28      2.41      0.01         0.01
  YS02001649YS02001757        2.41      2.41      2.49      0.06         0.04
  YS02001652YS02001649        2.26      2.26      2.41      0.78         0.78
  YS02001655YS02001652        2.11      2.11      2.25      0.77         0.77
  YS02001658YS02001655        1.88      1.88      2.11      0.69         0.69
  YS02001661YS02001658        1.53      1.53      1.88      0.65         0.65
  YS02001664YS02001661        1.04      1.04      1.76      0.01         0.01
  YS02001745YS02001748        1.07      1.07      1.84      0.39         0.39
  YS02001748YS02001751        1.90      1.90      2.05      0.50         0.50
  YS02001751YS02001754        2.05      2.05      2.19      0.48         0.48
  YS02001754YS02001757        2.23      2.23      2.49      0.01         0.01
  YS02001757CaochengTiaoxuchi        2.40      2.49      2.91      0.85         0.75
  YS02001759YS02001757        2.41      2.41      2.49      0.16         0.14
  YS02001762YS02001759        2.38      2.38      2.41      0.01         0.02
  YS02001765YS02001762        2.34      2.34      2.38      0.01         0.01
  YS02001767YS02001765        2.31      2.32      2.34      0.01         0.02
  YS02001770YS02001767        2.31      2.31      2.32      1.71         0.64
  YS02001774YS02001770        2.29      2.29      2.36      0.01         0.01
  YS02001779YS02001774        2.18      2.18      2.36      0.01         0.01
  YS02001783YS02001784        1.98      1.99      1.98      2.06         1.98
  YS02001784YS02001785        1.92      1.98      1.92      2.13         1.92
  YS02001786YS02001788        0.01      1.92      0.01      2.10         0.01
  YS02001790YS02001791        0.01      0.01      0.01      1.97         0.01
  YS02001793JiankangQianchi        0.01      0.01      3.85      0.01         0.01
  YS02001882YS02001884        1.96      1.96      1.97      0.01         0.01
  YS02001884YS02001887        1.98      1.98      1.99      0.01         0.01
  YS02001887YS02001890        1.99      1.99      2.00      1.67         0.01
  YS02001890YS02001895        1.95      1.95      2.01      0.01         0.01
  YS02001895YS02001898        1.95      1.95      1.95      0.01         0.01
  YS02001898YS02001901        1.96      1.96      1.98      0.01         0.01
  YS02001901YS02001904        1.97      1.97      1.98      0.01         0.01
  YS02001904YS02001907        1.97      1.97      2.09      0.01         0.01
  YS02001907YS02006553        2.13      2.13      2.16      0.90         0.90
  YS02001910YS02001907        2.01      2.01      2.08      1.31         1.31
  YS02001915YS02001910        1.96      1.96      2.01      0.01         0.18
  YS02001918YS02001915        1.91      1.91      1.96      0.01         0.01
  YS02001920YS02001918        1.91      1.91      1.92      0.90         0.01
  YS02001923YS02001920        1.88      1.88      1.92      0.01         0.01
  YS02001926YS02001923        1.67      1.67      1.75      1.20         0.01
  YS02001929YS02001926        1.36      1.37      1.75      0.01         0.01
  YS02006553YS02006556        2.05      2.05      2.09      0.80         0.80
  YS02006556YS02006558        2.07      2.07      2.10      0.77         0.01
  YS02006558YS02006561        1.93      2.04      1.93      2.12         1.93
  YS02006561YS02001783        1.88      1.88      1.99      0.01         0.01
  YS02163301YS02001633        2.40      2.40      2.43      0.94         0.01
  YS02163601YS02164001        2.41      2.41      2.46      0.03         0.01
  YS02164001YS02001641        2.41      2.41      2.42      1.35         1.34
  
  
  ***************
  Pumping Summary
  ***************
  
  ---------------------------------------------------------------------------------------------------------
                                                  Min       Avg       Max     Total     Power    % Time Off
                        Percent   Number of      Flow      Flow      Flow    Volume     Usage    Pump Curve
  Pump                 Utilized   Start-Ups       LPS       LPS       LPS  10^6 ltr     Kw-hr    Low   High
  ---------------------------------------------------------------------------------------------------------
  CC-R1                   32.62         161      0.00    683.00    683.00     6.349    129.90    0.0   62.2
  CC-R2                   44.36           2      0.00    683.00    683.00     8.635    169.54    0.0   68.2
  CC-S1                   38.09         188      0.00    200.00    200.00     2.171      8.84    0.0   53.3
  CC-S2                   45.92           2      0.00    200.00    200.00     2.618     11.59    0.0   45.8
  JK-R1                   33.31         348      0.00    964.07   1000.00     8.384     99.34    0.0    0.0
  JK-R2                    0.26           4      0.00   1000.00   1000.00     0.073      0.97    0.0    0.0
  JK-S                    15.39         100      0.00    300.00    300.00     1.316     15.80    0.0    0.0
  

  Analysis begun on:  Tue Dec 24 10:22:00 2024
  Analysis ended on:  Tue Dec 24 10:22:03 2024
  Total elapsed time: 00:00:03