
  EPA STORM WATER MANAGEMENT MODEL - VERSION 5.2 (Build 5.2.4)
  PYSWMM TOOLKIT API - VERSION v1.0 (2023-11-27)
  ------------------------------------------------------------

  
  ****************
  Analysis Options
  ****************
  Flow Units ............... CMS
  Process Models:
    Rainfall/Runoff ........ YES
    RDII ................... NO
    Snowmelt ............... NO
    Groundwater ............ NO
    Flow Routing ........... YES
    Ponding Allowed ........ YES
    Water Quality .......... NO
  Infiltration Method ...... HORTON
  Flow Routing Method ...... DYNWAVE
  Surcharge Method ......... EXTRAN
  Starting Date ............ 01/01/2000 08:00:00
  Ending Date .............. 01/01/2000 16:00:00
  Antecedent Dry Days ...... 0.0
  Report Time Step ......... 00:05:00
  Wet Time Step ............ 00:05:00
  Dry Time Step ............ 00:05:00
  Routing Time Step ........ 30.00 sec
  Variable Time Step ....... YES
  Maximum Trials ........... 8
  Number of Threads ........ 1
  Head Tolerance ........... 0.001500 m
  
  
  **************************        Volume         Depth
  Runoff Quantity Continuity     hectare-m            mm
  **************************     ---------       -------
  Total Precipitation ......         3.580        19.867
  Evaporation Loss .........         0.000         0.000
  Infiltration Loss ........         0.000         0.000
  Surface Runoff ...........         3.587        19.905
  Final Storage ............         0.022         0.121
  Continuity Error (%) .....        -0.800
  
  
  **************************        Volume        Volume
  Flow Routing Continuity        hectare-m      10^6 ltr
  **************************     ---------     ---------
  Dry Weather Inflow .......         0.399         3.989
  Wet Weather Inflow .......         3.586        35.864
  Groundwater Inflow .......         0.000         0.000
  RDII Inflow ..............         0.000         0.000
  External Inflow ..........         0.000         0.000
  External Outflow .........         0.624         6.239
  Flooding Loss ............         2.314        23.142
  Evaporation Loss .........         0.000         0.000
  Exfiltration Loss ........         0.000         0.000
  Initial Stored Volume ....         0.000         0.000
  Final Stored Volume ......         0.806         8.056
  Continuity Error (%) .....         6.064
  
  
  *************************
  Highest Continuity Errors
  *************************
  Node T2 (22.55%)
  Node T3 (19.56%)
  Node T4 (18.41%)
  Node T6 (13.29%)
  Node J12 (9.35%)
  
  
  ***************************
  Time-Step Critical Elements
  ***************************
  Link C15 (30.62%)
  Link C8 (4.50%)
  Link C21 (3.81%)
  
  
  ********************************
  Highest Flow Instability Indexes
  ********************************
  Link C13 (11)
  Link C3 (5)
  Link C12 (5)
  Link C11 (5)
  Link C23 (5)
  
  
  *********************************
  Most Frequent Nonconverging Nodes
  *********************************
  Node Out_to_WWTP (2.77%)
  Node CSO7 (1.56%)
  Node J4 (1.30%)
  Node CSO9 (0.69%)
  Node CSO8 (0.17%)
  
  
  *************************
  Routing Time Step Summary
  *************************
  Minimum Time Step           :     1.20 sec
  Average Time Step           :    24.65 sec
  Maximum Time Step           :    30.00 sec
  % of Time in Steady State   :     0.00
  Average Iterations per Step :     2.94
  % of Steps Not Converging   :     2.77
  Time Step Frequencies       :
     30.000 - 13.228 sec      :    78.87 %
     13.228 -  5.833 sec      :    20.35 %
      5.833 -  2.572 sec      :     0.52 %
      2.572 -  1.134 sec      :     0.26 %
      1.134 -  0.500 sec      :     0.00 %
  
  
  ***************************
  Subcatchment Runoff Summary
  ***************************
  
  ------------------------------------------------------------------------------------------------------------------------------
                            Total      Total      Total      Total     Imperv       Perv      Total       Total     Peak  Runoff
                           Precip      Runon       Evap      Infil     Runoff     Runoff     Runoff      Runoff   Runoff   Coeff
  Subcatchment                 mm         mm         mm         mm         mm         mm         mm    10^6 ltr      CMS
  ------------------------------------------------------------------------------------------------------------------------------
  SC01                      28.89       0.00       0.00       0.00      29.08       0.00      29.08        9.60     4.09   1.007
  SC02                      15.43       0.00       0.00       0.00      15.43       0.00      15.43        3.51     1.93   1.000
  SC03                      18.06       0.00       0.00       0.00      18.24       0.00      18.24        3.28     2.49   1.010
  SC04                      15.43       0.00       0.00       0.00      15.32       0.00      15.32        1.06     0.47   0.993
  SC05                      28.89       0.00       0.00       0.00      29.06       0.00      29.06        4.53     1.89   1.006
  SC06                      12.04       0.00       0.00       0.00      11.83       0.00      11.83        3.85     0.69   0.983
  SC07                      15.43       0.00       0.00       0.00      15.32       0.00      15.32        0.73     0.32   0.993
  SC08                      18.06       0.00       0.00       0.00      18.14       0.00      18.14        5.08     3.40   1.004
  SC09                      12.04       0.00       0.00       0.00      11.94       0.00      11.94        0.82     0.18   0.992
  SC010                     28.89       0.00       0.00       0.00      29.00       0.00      29.00        3.41     1.31   1.004
  
  
  ******************
  Node Depth Summary
  ******************
  
  ---------------------------------------------------------------------------------
                                 Average  Maximum  Maximum  Time of Max    Reported
                                   Depth    Depth      HGL   Occurrence   Max Depth
  Node                 Type       Meters   Meters   Meters  days hr:min      Meters
  ---------------------------------------------------------------------------------
  J1                   JUNCTION     0.14     0.53    34.53     0  01:16        0.50
  J3                   JUNCTION     0.11     0.14    18.14     0  03:45        0.14
  CSO7                 JUNCTION     0.34     1.20    35.20     0  01:18        1.20
  J5                   JUNCTION     0.09     0.25    32.25     0  01:35        0.24
  CSO9                 JUNCTION     0.52     2.00    42.00     0  01:18        2.00
  J8                   JUNCTION     0.15     0.30    36.30     0  01:56        0.30
  CSO8                 JUNCTION     0.52     2.00    34.00     0  01:06        2.00
  J10                  JUNCTION     0.14     0.52    29.52     0  01:20        0.52
  J13                  JUNCTION     0.09     0.36    29.36     0  01:35        0.36
  J15                  JUNCTION     0.26     0.79    15.79     0  01:18        0.78
  J16                  JUNCTION     0.13     0.48    30.48     0  01:15        0.48
  CSO10                JUNCTION     0.36     1.00    31.00     0  01:03        1.00
  J12                  JUNCTION     0.76     1.03    27.03     0  02:18        1.02
  J4                   JUNCTION     0.23     1.04    34.04     0  01:22        0.74
  J6                   JUNCTION     0.05     0.07    25.07     0  03:45        0.07
  J2                   JUNCTION     0.07     0.08    25.08     0  03:06        0.08
  J19                  JUNCTION     0.15     0.17     8.17     0  01:17        0.17
  J9                   JUNCTION     0.09     0.11    29.11     0  04:20        0.11
  J14                  JUNCTION     0.11     0.15    20.15     0  04:48        0.15
  J17                  JUNCTION     0.06     0.08    20.08     0  03:38        0.08
  J7                   JUNCTION     0.12     0.23    39.23     0  02:03        0.23
  J11                  JUNCTION     0.13     0.30    31.30     0  01:56        0.30
  J18                  JUNCTION     0.08     0.16    29.16     0  02:16        0.16
  Out_to_WWTP          OUTFALL      0.15     0.17     6.17     0  03:27        0.17
  T5                   STORAGE      4.09     5.00    32.00     0  01:16        5.00
  T4                   STORAGE      3.79     5.00    32.00     0  01:54        5.00
  T6                   STORAGE      3.95     5.00    36.00     0  01:45        5.00
  T3                   STORAGE      3.97     5.00    27.00     0  02:07        5.00
  T2                   STORAGE      3.94     5.00    26.00     0  01:39        5.00
  T1                   STORAGE      3.90     5.00    15.00     0  01:16        5.00
  
  
  *******************
  Node Inflow Summary
  *******************
  
  -------------------------------------------------------------------------------------------------
                                  Maximum  Maximum                  Lateral       Total        Flow
                                  Lateral    Total  Time of Max      Inflow      Inflow     Balance
                                   Inflow   Inflow   Occurrence      Volume      Volume       Error
  Node                 Type           CMS      CMS  days hr:min    10^6 ltr    10^6 ltr     Percent
  -------------------------------------------------------------------------------------------------
  J1                   JUNCTION     1.904    1.904     0  01:15         5.1         5.1      -0.021
  J3                   JUNCTION     0.000    0.192     0  03:08           0        3.69       0.794
  CSO7                 JUNCTION     0.330    0.330     0  01:35        1.02        1.02       0.054
  J5                   JUNCTION     0.470    0.545     0  01:35        1.19        1.84       0.073
  CSO9                 JUNCTION     0.187    0.187     0  01:25        1.02        1.02       0.052
  J8                   JUNCTION     0.720    0.848     0  01:55         4.8        5.74       0.075
  CSO8                 JUNCTION     3.407    3.407     0  01:20        5.37        5.37       0.014
  J10                  JUNCTION     2.504    2.989     0  01:20        3.67         6.2      -0.071
  J13                  JUNCTION     1.941    1.941     0  01:35        3.98        3.98      -0.188
  J15                  JUNCTION     0.000    4.325     0  01:15           0        15.7       0.440
  J16                  JUNCTION     4.107    4.107     0  01:15        10.1        10.1      -0.072
  CSO10                JUNCTION     1.317    1.317     0  01:15        3.55        3.55       0.005
  J12                  JUNCTION     0.000    3.000     0  01:20           0        7.66      10.309
  J4                   JUNCTION     0.000    0.085     0  01:20           0       0.658       0.515
  J6                   JUNCTION     0.000    0.028     0  02:15           0       0.483       0.514
  J2                   JUNCTION     0.000    0.039     0  01:16           0       0.946       0.512
  J19                  JUNCTION     0.000    0.271     0  01:16           0        6.25       0.175
  J9                   JUNCTION     0.000    0.075     0  01:55           0        1.43       1.249
  J14                  JUNCTION     0.000    0.124     0  02:45           0        2.27       0.199
  J17                  JUNCTION     0.000    0.033     0  01:55           0       0.587       0.904
  J7                   JUNCTION     0.000    0.127     0  02:03           0       0.943       0.335
  J11                  JUNCTION     0.000    0.486     0  01:56           0        2.54       0.307
  J18                  JUNCTION     0.000    0.202     0  01:50           0        1.35       0.029
  Out_to_WWTP          OUTFALL      0.000    0.271     0  01:17           0        6.24       0.000
  T5                   STORAGE      0.000    1.810     0  01:15           0         5.1       7.287
  T4                   STORAGE      0.000    0.541     0  01:35           0        1.84      22.561
  T6                   STORAGE      0.000    0.839     0  01:56           0        5.74      15.327
  T3                   STORAGE      0.000    2.973     0  01:20           0        6.95      24.316
  T2                   STORAGE      0.000    1.929     0  01:35           0        3.99      29.122
  T1                   STORAGE      0.000    3.702     0  01:14           0        15.7       3.390
  
  
  **********************
  Node Surcharge Summary
  **********************
  
  Surcharging occurs when water rises above the top of the highest conduit.
  ---------------------------------------------------------------------
                                               Max. Height   Min. Depth
                                   Hours       Above Crown    Below Rim
  Node                 Type      Surcharged         Meters       Meters
  ---------------------------------------------------------------------
  CSO7                 JUNCTION        1.10          0.945        0.000
  CSO9                 JUNCTION        1.31          1.682        0.000
  CSO8                 JUNCTION        0.99          1.547        0.000
  CSO10                JUNCTION        1.39          0.560        0.000
  J4                   JUNCTION        1.06          0.736        0.964
  
  
  *********************
  Node Flooding Summary
  *********************
  
  Flooding refers to all water that overflows a node, whether it ponds or not.
  --------------------------------------------------------------------------
                                                             Total   Maximum
                                 Maximum   Time of Max       Flood    Ponded
                        Hours       Rate    Occurrence      Volume     Depth
  Node                 Flooded       CMS   days hr:min    10^6 ltr    Meters
  --------------------------------------------------------------------------
  CSO7                    0.98     0.254      0  01:35       0.363     0.000
  CSO9                    0.75     0.060      0  01:25       0.079     0.000
  CSO8                    0.84     2.912      0  01:20       2.837     0.000
  CSO10                   1.34     1.108      0  01:15       2.196     0.000
  T5                      2.03     1.705      0  01:16       3.420     0.000
  T4                      2.82     0.266      0  01:54       0.547     0.000
  T6                      3.45     0.797      0  01:55       2.996     0.000
  T3                      1.20     0.779      0  02:08       0.717     0.000
  T2                      1.91     1.565      0  01:39       1.537     0.000
  T1                      2.00     3.117      0  01:16       8.436     0.000
  
  
  **********************
  Storage Volume Summary
  **********************
  
  ------------------------------------------------------------------------------------------------
                         Average    Avg   Evap  Exfil     Maximum    Max    Time of Max    Maximum
                          Volume   Pcnt   Pcnt   Pcnt      Volume   Pcnt     Occurrence    Outflow
  Storage Unit           1000 m³   Full   Loss   Loss     1000 m³   Full    days hr:min        CMS
  ------------------------------------------------------------------------------------------------
  T5                       0.409   81.8    0.0    0.0       0.500  100.0       0  01:16      0.039
  T4                       0.379   75.9    0.0    0.0       0.500  100.0       0  01:54      0.028
  T6                       0.473   78.9    0.0    0.0       0.600  100.0       0  01:45      0.075
  T3                       2.065   79.4    0.0    0.0       2.600  100.0       0  02:07      0.326
  T2                       0.788   78.8    0.0    0.0       1.000  100.0       0  01:39      0.033
  T1                       0.546   78.0    0.0    0.0       0.700  100.0       0  01:16      0.271
  
  
  ***********************
  Outfall Loading Summary
  ***********************
  
  -----------------------------------------------------------
                         Flow       Avg       Max       Total
                         Freq      Flow      Flow      Volume
  Outfall Node           Pcnt       CMS       CMS    10^6 ltr
  -----------------------------------------------------------
  Out_to_WWTP           99.05     0.226     0.271       6.239
  -----------------------------------------------------------
  System                99.05     0.226     0.271       6.239
  
  
  ********************
  Link Flow Summary
  ********************
  
  -----------------------------------------------------------------------------
                                 Maximum  Time of Max   Maximum    Max/    Max/
                                  |Flow|   Occurrence   |Veloc|    Full    Full
  Link                 Type          CMS  days hr:min     m/sec    Flow   Depth
  -----------------------------------------------------------------------------
  C1                   CONDUIT     0.039     0  02:05      1.26    0.01    0.11
  C6                   CONDUIT     0.075     0  01:35      1.29    1.20    0.91
  C2                   CONDUIT     0.028     0  03:45      1.00    0.03    0.18
  C9                   CONDUIT     0.127     0  02:03      1.31    0.43    0.53
  C16                  CONDUIT     0.487     0  01:45      1.81    0.05    0.20
  C3                   CONDUIT     0.125     0  05:28      1.90    0.05    0.14
  C19                  CONDUIT     0.033     0  03:38      0.69    0.01    0.42
  C11                  CONDUIT     0.190     0  03:45      1.82    0.01    0.22
  C20                  CONDUIT     4.067     0  01:15      5.38    0.13    0.31
  C22                  CONDUIT     0.202     0  01:43      1.77    0.09    0.60
  C12                  CONDUIT     0.075     0  04:20      0.60    0.01    0.28
  C17                  CONDUIT     2.983     0  01:20      4.50    0.15    0.31
  C10                  CONDUIT     0.839     0  01:56      1.66    0.09    0.60
  C13                  CONDUIT     2.973     0  01:20      3.08    0.17    0.76
  C18                  CONDUIT     1.929     0  01:35      3.36    0.07    0.59
  C23                  CONDUIT     3.702     0  01:14      2.82    0.41    0.76
  C4                   CONDUIT     1.810     0  01:15      3.06    0.44    0.76
  C7                   CONDUIT     0.541     0  01:35      1.44    0.13    0.62
  C14                  CONDUIT     0.271     0  01:17      2.08    0.02    0.09
  C5                   CONDUIT     0.085     0  01:20      1.67    1.45    1.00
  C8                   CONDUIT     0.127     0  02:03      1.77    1.60    0.86
  C15                  CONDUIT     0.486     0  01:56      3.68    1.55    0.83
  C21                  CONDUIT     0.202     0  01:50      1.91    1.16    0.69
  V4                   ORIFICE     0.028     0  02:15                      0.35
  V5                   ORIFICE     0.039     0  01:16                      1.00
  V1                   ORIFICE     0.271     0  01:16                      1.00
  V6                   ORIFICE     0.075     0  01:55                      0.43
  V3                   ORIFICE     0.124     0  02:45                      0.65
  V2                   ORIFICE     0.033     0  01:55                      0.24
  
  
  ***************************
  Flow Classification Summary
  ***************************
  
  -------------------------------------------------------------------------------------
                      Adjusted    ---------- Fraction of Time in Flow Class ---------- 
                       /Actual         Up    Down  Sub   Sup   Up    Down  Norm  Inlet 
  Conduit               Length    Dry  Dry   Dry   Crit  Crit  Crit  Crit  Ltd   Ctrl  
  -------------------------------------------------------------------------------------
  C1                      1.00   0.00  0.00  0.00  0.09  0.91  0.00  0.00  0.93  0.00
  C6                      1.00   0.00  0.00  0.00  0.16  0.84  0.00  0.00  0.00  0.00
  C2                      1.00   0.00  0.00  0.00  0.73  0.27  0.00  0.00  0.99  0.00
  C9                      1.00   0.00  0.00  0.00  1.00  0.00  0.00  0.00  1.00  0.00
  C16                     1.00   0.00  0.00  0.00  0.67  0.33  0.00  0.00  0.58  0.00
  C3                      1.00   0.00  0.01  0.00  0.05  0.94  0.00  0.00  0.48  0.00
  C19                     1.00   0.00  0.00  0.00  1.00  0.00  0.00  0.00  1.00  0.00
  C11                     1.00   0.00  0.00  0.00  0.29  0.71  0.00  0.00  1.00  0.00
  C20                     1.00   0.00  0.00  0.00  0.64  0.36  0.00  0.00  0.97  0.00
  C22                     1.00   0.00  0.00  0.00  0.92  0.08  0.00  0.00  1.00  0.00
  C12                     1.00   0.00  0.00  0.00  1.00  0.00  0.00  0.00  1.00  0.00
  C17                     1.00   0.00  0.00  0.00  0.77  0.23  0.00  0.00  0.94  0.00
  C10                     1.00   0.00  0.00  0.00  0.96  0.04  0.00  0.00  0.98  0.00
  C13                     1.00   0.00  0.00  0.00  0.84  0.16  0.00  0.00  0.10  0.00
  C18                     1.00   0.00  0.00  0.00  0.94  0.06  0.00  0.00  0.97  0.00
  C23                     1.00   0.00  0.00  0.00  0.86  0.14  0.00  0.00  0.88  0.00
  C4                      1.00   0.00  0.00  0.00  0.94  0.06  0.00  0.00  0.95  0.00
  C7                      1.00   0.00  0.00  0.00  0.94  0.06  0.00  0.00  0.97  0.00
  C14                     1.00   0.00  0.01  0.00  0.01  0.98  0.00  0.00  0.26  0.00
  C5                      1.00   0.00  0.00  0.00  0.93  0.07  0.00  0.00  0.83  0.00
  C8                      1.00   0.00  0.00  0.00  0.20  0.80  0.00  0.00  0.00  0.00
  C15                     1.00   0.00  0.00  0.00  0.00  1.00  0.00  0.00  0.00  0.00
  C21                     1.00   0.00  0.00  0.00  0.00  1.00  0.00  0.00  0.00  0.00
  
  
  *************************
  Conduit Surcharge Summary
  *************************
  
  ----------------------------------------------------------------------------
                                                           Hours        Hours 
                         --------- Hours Full --------   Above Full   Capacity
  Conduit                Both Ends  Upstream  Dnstream   Normal Flow   Limited
  ----------------------------------------------------------------------------
  C6                          0.01      1.06      0.01      0.97         0.01
  C10                         0.01      0.01      6.53      0.01         0.01
  C13                         0.01      0.01      6.56      0.01         0.01
  C18                         0.01      0.01      6.44      0.01         0.01
  C23                         0.01      0.01      6.74      0.01         0.01
  C4                          0.01      0.01      6.79      0.01         0.01
  C7                          0.01      0.01      6.47      0.01         0.01
  C5                          1.05      1.09      1.16      1.10         1.03
  C8                          0.01      1.31      0.01      1.31         0.01
  C15                         0.01      0.99      0.01      1.01         0.01
  C21                         0.01      1.39      0.01      1.37         0.01
  

  Analysis begun on:  Sun Oct 20 17:00:59 2024
  Analysis ended on:  Sun Oct 20 17:00:59 2024
  Total elapsed time: < 1 sec