
  EPA STORM WATER MANAGEMENT MODEL - VERSION 5.2 (Build 5.2.4)
  PYSWMM TOOLKIT API - VERSION v1.0 (2023-11-27)
  ------------------------------------------------------------

  
  ****************
  Analysis Options
  ****************
  Flow Units ............... CMS
  Process Models:
    Rainfall/Runoff ........ YES
    RDII ................... NO
    Snowmelt ............... NO
    Groundwater ............ NO
    Flow Routing ........... YES
    Ponding Allowed ........ YES
    Water Quality .......... NO
  Infiltration Method ...... HORTON
  Flow Routing Method ...... DYNWAVE
  Surcharge Method ......... EXTRAN
  Starting Date ............ 01/01/2000 08:00:00
  Ending Date .............. 01/01/2000 16:00:00
  Antecedent Dry Days ...... 0.0
  Report Time Step ......... 00:05:00
  Wet Time Step ............ 00:05:00
  Dry Time Step ............ 00:05:00
  Routing Time Step ........ 30.00 sec
  Variable Time Step ....... YES
  Maximum Trials ........... 8
  Number of Threads ........ 1
  Head Tolerance ........... 0.001500 m
  
  
  **************************        Volume         Depth
  Runoff Quantity Continuity     hectare-m            mm
  **************************     ---------       -------
  Total Precipitation ......         4.394        24.383
  Evaporation Loss .........         0.000         0.000
  Infiltration Loss ........         0.000         0.000
  Surface Runoff ...........         4.435        24.610
  Final Storage ............         0.023         0.130
  Continuity Error (%) .....        -1.464
  
  
  **************************        Volume        Volume
  Flow Routing Continuity        hectare-m      10^6 ltr
  **************************     ---------     ---------
  Dry Weather Inflow .......         0.399         3.989
  Wet Weather Inflow .......         4.434        44.338
  Groundwater Inflow .......         0.000         0.000
  RDII Inflow ..............         0.000         0.000
  External Inflow ..........         0.000         0.000
  External Outflow .........         0.619         6.186
  Flooding Loss ............         3.156        31.565
  Evaporation Loss .........         0.000         0.000
  Exfiltration Loss ........         0.000         0.000
  Initial Stored Volume ....         0.000         0.000
  Final Stored Volume ......         0.809         8.093
  Continuity Error (%) .....         5.138
  
  
  *************************
  Highest Continuity Errors
  *************************
  Node T5 (15.04%)
  Node T3 (11.24%)
  Node T2 (10.66%)
  Node T4 (9.96%)
  Node T6 (9.68%)
  
  
  ***************************
  Time-Step Critical Elements
  ***************************
  Link C15 (53.23%)
  
  
  ********************************
  Highest Flow Instability Indexes
  ********************************
  Link C13 (9)
  Link C12 (5)
  Link C19 (5)
  Link C2 (5)
  Link C3 (5)
  
  
  *********************************
  Most Frequent Nonconverging Nodes
  *********************************
  Node Out_to_WWTP (4.75%)
  Node CSO7 (2.57%)
  Node J4 (2.26%)
  Node CSO9 (1.25%)
  Node CSO8 (0.70%)
  
  
  *************************
  Routing Time Step Summary
  *************************
  Minimum Time Step           :     0.30 sec
  Average Time Step           :    22.18 sec
  Maximum Time Step           :    30.00 sec
  % of Time in Steady State   :     0.00
  Average Iterations per Step :     3.19
  % of Steps Not Converging   :     4.75
  Time Step Frequencies       :
     30.000 - 13.228 sec      :    66.07 %
     13.228 -  5.833 sec      :    33.31 %
      5.833 -  2.572 sec      :     0.39 %
      2.572 -  1.134 sec      :     0.23 %
      1.134 -  0.500 sec      :     0.00 %
  
  
  ***************************
  Subcatchment Runoff Summary
  ***************************
  
  ------------------------------------------------------------------------------------------------------------------------------
                            Total      Total      Total      Total     Imperv       Perv      Total       Total     Peak  Runoff
                           Precip      Runon       Evap      Infil     Runoff     Runoff     Runoff      Runoff   Runoff   Coeff
  Subcatchment                 mm         mm         mm         mm         mm         mm         mm    10^6 ltr      CMS
  ------------------------------------------------------------------------------------------------------------------------------
  SC01                      12.58       0.00       0.00       0.00      12.67       0.00      12.67        4.18     2.64   1.007
  SC02                      34.43       0.00       0.00       0.00      34.88       0.00      34.88        7.93     3.85   1.013
  SC03                      37.57       0.00       0.00       0.00      38.47       0.00      38.47        6.92     3.34   1.024
  SC04                      34.43       0.00       0.00       0.00      34.53       0.00      34.53        2.38     0.77   1.003
  SC05                      12.58       0.00       0.00       0.00      12.65       0.00      12.65        1.97     1.19   1.006
  SC06                      18.30       0.00       0.00       0.00      18.17       0.00      18.17        5.91     2.32   0.993
  SC07                      34.43       0.00       0.00       0.00      34.54       0.00      34.54        1.64     0.53   1.003
  SC08                      37.57       0.00       0.00       0.00      38.04       0.00      38.04       10.65     3.48   1.013
  SC09                      18.30       0.00       0.00       0.00      18.32       0.00      18.32        1.26     0.67   1.001
  SC010                     12.58       0.00       0.00       0.00      12.61       0.00      12.61        1.48     0.79   1.002
  
  
  ******************
  Node Depth Summary
  ******************
  
  ---------------------------------------------------------------------------------
                                 Average  Maximum  Maximum  Time of Max    Reported
                                   Depth    Depth      HGL   Occurrence   Max Depth
  Node                 Type       Meters   Meters   Meters  days hr:min      Meters
  ---------------------------------------------------------------------------------
  J1                   JUNCTION     0.10     0.37    34.37     0  01:20        0.36
  J3                   JUNCTION     0.11     0.14    18.14     0  04:48        0.14
  CSO7                 JUNCTION     0.52     1.20    35.20     0  01:11        1.20
  J5                   JUNCTION     0.12     0.31    32.31     0  01:20        0.30
  CSO9                 JUNCTION     0.56     2.00    42.00     0  01:09        2.00
  J8                   JUNCTION     0.18     0.52    36.52     0  01:25        0.52
  CSO8                 JUNCTION     0.78     2.00    34.00     0  01:09        2.00
  J10                  JUNCTION     0.19     0.58    29.58     0  01:15        0.57
  J13                  JUNCTION     0.13     0.51    29.51     0  01:20        0.50
  J15                  JUNCTION     0.21     0.55    15.55     0  01:22        0.52
  J16                  JUNCTION     0.10     0.39    30.39     0  01:20        0.38
  CSO10                JUNCTION     0.27     1.00    31.00     0  01:11        1.00
  J12                  JUNCTION     0.80     1.23    27.23     0  02:31        1.18
  J4                   JUNCTION     0.30     0.90    33.90     0  01:15        0.74
  J6                   JUNCTION     0.06     0.07    25.07     0  04:50        0.07
  J2                   JUNCTION     0.07     0.08    25.08     0  02:19        0.08
  J19                  JUNCTION     0.15     0.17     8.17     0  01:28        0.17
  J9                   JUNCTION     0.08     0.11    29.11     0  03:10        0.11
  J14                  JUNCTION     0.11     0.15    20.15     0  03:52        0.15
  J17                  JUNCTION     0.06     0.08    20.08     0  02:35        0.08
  J7                   JUNCTION     0.12     0.23    39.23     0  01:42        0.23
  J11                  JUNCTION     0.17     0.30    31.30     0  03:13        0.30
  J18                  JUNCTION     0.08     0.16    29.16     0  01:36        0.16
  Out_to_WWTP          OUTFALL      0.15     0.17     6.17     0  03:47        0.17
  T5                   STORAGE      4.08     5.00    32.00     0  01:33        5.00
  T4                   STORAGE      4.16     5.00    32.00     0  01:35        5.00
  T6                   STORAGE      4.27     5.00    36.00     0  01:24        5.00
  T3                   STORAGE      4.09     5.00    27.00     0  02:09        5.00
  T2                   STORAGE      4.26     5.00    26.00     0  01:24        5.00
  T1                   STORAGE      3.94     5.00    15.00     0  01:27        5.00
  
  
  *******************
  Node Inflow Summary
  *******************
  
  -------------------------------------------------------------------------------------------------
                                  Maximum  Maximum                  Lateral       Total        Flow
                                  Lateral    Total  Time of Max      Inflow      Inflow     Balance
                                   Inflow   Inflow   Occurrence      Volume      Volume       Error
  Node                 Type           CMS      CMS  days hr:min    10^6 ltr    10^6 ltr     Percent
  -------------------------------------------------------------------------------------------------
  J1                   JUNCTION     1.212    1.212     0  01:20        2.54        2.54       0.013
  J3                   JUNCTION     0.000    0.192     0  02:58           0        3.69       0.763
  CSO7                 JUNCTION     0.539    0.539     0  01:20        1.93        1.93       0.018
  J5                   JUNCTION     0.771    0.844     0  01:20        2.51        3.39       0.040
  CSO9                 JUNCTION     0.675    0.675     0  01:20        1.46        1.46       0.026
  J8                   JUNCTION     2.352    2.479     0  01:25        6.86        7.81       0.047
  CSO8                 JUNCTION     3.495    3.495     0  01:15        10.9        10.9      -0.011
  J10                  JUNCTION     3.349    3.818     0  01:15        7.31        11.3      -0.046
  J13                  JUNCTION     3.866    3.866     0  01:20        8.41        8.41      -0.103
  J15                  JUNCTION     0.000    2.888     0  01:20           0        10.2       0.651
  J16                  JUNCTION     2.654    2.654     0  01:20        4.74        4.74      -0.069
  CSO10                JUNCTION     0.797    0.797     0  01:20        1.62        1.62      -0.010
  J12                  JUNCTION     0.000    3.720     0  01:16           0        12.8       5.884
  J4                   JUNCTION     0.000    0.085     0  01:13           0       0.885       0.349
  J6                   JUNCTION     0.000    0.028     0  01:40           0       0.531       0.445
  J2                   JUNCTION     0.000    0.039     0  01:34           0       0.935       0.535
  J19                  JUNCTION     0.000    0.271     0  01:27           0         6.2       0.178
  J9                   JUNCTION     0.000    0.075     0  01:55           0        1.32       1.152
  J14                  JUNCTION     0.000    0.124     0  02:30           0        2.24       0.214
  J17                  JUNCTION     0.000    0.033     0  01:40           0       0.589       0.763
  J7                   JUNCTION     0.000    0.127     0  01:42           0       0.953       0.341
  J11                  JUNCTION     0.000    0.487     0  03:13           0        4.02       0.234
  J18                  JUNCTION     0.000    0.202     0  01:36           0         1.2       0.028
  Out_to_WWTP          OUTFALL      0.000    0.271     0  01:28           0        6.19       0.000
  T5                   STORAGE      0.000    1.192     0  01:20           0        2.54      17.706
  T4                   STORAGE      0.000    0.836     0  01:20           0        3.39      11.060
  T6                   STORAGE      0.000    2.479     0  01:25           0        7.81      10.718
  T3                   STORAGE      0.000    3.725     0  02:34           0        12.1      12.663
  T2                   STORAGE      0.000    3.818     0  01:20           0        8.41      11.932
  T1                   STORAGE      0.000    2.556     0  01:22           0        10.1       5.891
  
  
  **********************
  Node Surcharge Summary
  **********************
  
  Surcharging occurs when water rises above the top of the highest conduit.
  ---------------------------------------------------------------------
                                               Max. Height   Min. Depth
                                   Hours       Above Crown    Below Rim
  Node                 Type      Surcharged         Meters       Meters
  ---------------------------------------------------------------------
  CSO7                 JUNCTION        1.95          0.945        0.000
  CSO9                 JUNCTION        1.32          1.682        0.000
  CSO8                 JUNCTION        1.76          1.547        0.000
  CSO10                JUNCTION        0.75          0.560        0.000
  J4                   JUNCTION        1.89          0.600        1.100
  
  
  *********************
  Node Flooding Summary
  *********************
  
  Flooding refers to all water that overflows a node, whether it ponds or not.
  --------------------------------------------------------------------------
                                                             Total   Maximum
                                 Maximum   Time of Max       Flood    Ponded
                        Hours       Rate    Occurrence      Volume     Depth
  Node                 Flooded       CMS   days hr:min    10^6 ltr    Meters
  --------------------------------------------------------------------------
  CSO7                    1.76     0.464      0  01:20       1.048     0.000
  CSO9                    0.88     0.547      0  01:20       0.508     0.000
  CSO8                    1.53     2.987      0  01:15       6.921     0.000
  CSO10                   0.65     0.590      0  01:20       0.425     0.000
  T5                      2.19     0.450      0  02:40       0.827     0.000
  T4                      3.58     0.728      0  02:40       2.049     0.000
  T6                      4.18     2.450      0  01:24       5.159     0.000
  T3                      2.05     3.599      0  02:34       5.775     0.000
  T2                      3.58     3.107      0  02:40       5.967     0.000
  T1                      2.23     1.773      0  01:27       2.877     0.000
  
  
  **********************
  Storage Volume Summary
  **********************
  
  ------------------------------------------------------------------------------------------------
                         Average    Avg   Evap  Exfil     Maximum    Max    Time of Max    Maximum
                          Volume   Pcnt   Pcnt   Pcnt      Volume   Pcnt     Occurrence    Outflow
  Storage Unit           1000 m³   Full   Loss   Loss     1000 m³   Full    days hr:min        CMS
  ------------------------------------------------------------------------------------------------
  T5                       0.408   81.5    0.0    0.0       0.500  100.0       0  01:33      0.039
  T4                       0.416   83.2    0.0    0.0       0.500  100.0       0  01:35      0.028
  T6                       0.512   85.4    0.0    0.0       0.600  100.0       0  01:24      0.075
  T3                       2.129   81.9    0.0    0.0       2.600  100.0       0  02:09      0.380
  T2                       0.852   85.2    0.0    0.0       1.000  100.0       0  01:24      0.033
  T1                       0.552   78.8    0.0    0.0       0.700  100.0       0  01:27      0.271
  
  
  ***********************
  Outfall Loading Summary
  ***********************
  
  -----------------------------------------------------------
                         Flow       Avg       Max       Total
                         Freq      Flow      Flow      Volume
  Outfall Node           Pcnt       CMS       CMS    10^6 ltr
  -----------------------------------------------------------
  Out_to_WWTP           99.14     0.227     0.271       6.186
  -----------------------------------------------------------
  System                99.14     0.227     0.271       6.186
  
  
  ********************
  Link Flow Summary
  ********************
  
  -----------------------------------------------------------------------------
                                 Maximum  Time of Max   Maximum    Max/    Max/
                                  |Flow|   Occurrence   |Veloc|    Full    Full
  Link                 Type          CMS  days hr:min     m/sec    Flow   Depth
  -----------------------------------------------------------------------------
  C1                   CONDUIT     0.039     0  02:20      1.11    0.01    0.11
  C6                   CONDUIT     0.076     0  01:18      1.29    1.21    1.00
  C2                   CONDUIT     0.028     0  04:50      1.01    0.03    0.18
  C9                   CONDUIT     0.127     0  01:42      1.26    0.43    0.73
  C16                  CONDUIT     0.486     0  03:05      1.86    0.05    0.22
  C3                   CONDUIT     0.125     0  03:53      1.89    0.05    0.14
  C19                  CONDUIT     0.033     0  02:35      0.70    0.01    0.30
  C11                  CONDUIT     0.190     0  04:50      1.77    0.01    0.16
  C20                  CONDUIT     2.605     0  01:20      4.94    0.08    0.23
  C22                  CONDUIT     0.202     0  01:36      1.73    0.09    0.44
  C12                  CONDUIT     0.075     0  03:10      0.59    0.01    0.33
  C17                  CONDUIT     3.707     0  01:16      4.84    0.18    0.43
  C10                  CONDUIT     2.479     0  01:25      1.96    0.26    0.67
  C13                  CONDUIT     3.725     0  02:34      3.71    0.22    0.81
  C18                  CONDUIT     3.818     0  01:20      3.36    0.14    0.63
  C23                  CONDUIT     2.556     0  01:22      2.21    0.28    0.68
  C4                   CONDUIT     1.192     0  01:20      3.06    0.29    0.68
  C7                   CONDUIT     0.836     0  01:20      1.54    0.21    0.65
  C14                  CONDUIT     0.271     0  01:28      2.08    0.02    0.09
  C5                   CONDUIT     0.085     0  01:13      1.68    1.45    1.00
  C8                   CONDUIT     0.127     0  01:42      1.91    1.60    0.86
  C15                  CONDUIT     0.487     0  03:13      3.69    1.55    0.83
  C21                  CONDUIT     0.202     0  01:36      1.87    1.16    0.69
  V4                   ORIFICE     0.028     0  01:40                      0.35
  V5                   ORIFICE     0.039     0  01:34                      1.00
  V1                   ORIFICE     0.271     0  01:27                      1.00
  V6                   ORIFICE     0.075     0  01:55                      0.43
  V3                   ORIFICE     0.124     0  02:30                      0.65
  V2                   ORIFICE     0.033     0  01:40                      0.24
  
  
  ***************************
  Flow Classification Summary
  ***************************
  
  -------------------------------------------------------------------------------------
                      Adjusted    ---------- Fraction of Time in Flow Class ---------- 
                       /Actual         Up    Down  Sub   Sup   Up    Down  Norm  Inlet 
  Conduit               Length    Dry  Dry   Dry   Crit  Crit  Crit  Crit  Ltd   Ctrl  
  -------------------------------------------------------------------------------------
  C1                      1.00   0.00  0.00  0.00  0.11  0.89  0.00  0.00  0.94  0.00
  C6                      1.00   0.00  0.00  0.00  0.28  0.72  0.00  0.00  0.00  0.00
  C2                      1.00   0.00  0.00  0.00  0.57  0.43  0.00  0.00  1.00  0.00
  C9                      1.00   0.00  0.00  0.00  1.00  0.00  0.00  0.00  1.00  0.00
  C16                     1.00   0.00  0.00  0.00  0.59  0.41  0.00  0.00  0.44  0.00
  C3                      1.00   0.00  0.01  0.00  0.05  0.95  0.00  0.00  0.50  0.00
  C19                     1.00   0.00  0.00  0.00  1.00  0.00  0.00  0.00  1.00  0.00
  C11                     1.00   0.00  0.00  0.00  0.28  0.72  0.00  0.00  1.00  0.00
  C20                     1.00   0.00  0.00  0.00  0.57  0.43  0.00  0.00  0.97  0.00
  C22                     1.00   0.00  0.00  0.00  0.84  0.16  0.00  0.00  1.00  0.00
  C12                     1.00   0.00  0.00  0.00  1.00  0.00  0.00  0.00  1.00  0.00
  C17                     1.00   0.00  0.00  0.00  0.77  0.23  0.00  0.00  0.95  0.00
  C10                     1.00   0.00  0.00  0.00  0.96  0.04  0.00  0.00  0.98  0.00
  C13                     1.00   0.00  0.00  0.00  0.85  0.15  0.00  0.00  0.10  0.00
  C18                     1.00   0.00  0.00  0.00  0.93  0.07  0.00  0.00  0.97  0.00
  C23                     1.00   0.00  0.00  0.00  0.85  0.15  0.00  0.00  0.95  0.00
  C4                      1.00   0.00  0.00  0.00  0.95  0.05  0.00  0.00  0.98  0.00
  C7                      1.00   0.00  0.00  0.00  0.95  0.05  0.00  0.00  0.97  0.00
  C14                     1.00   0.00  0.01  0.00  0.01  0.98  0.00  0.00  0.31  0.00
  C5                      1.00   0.00  0.00  0.00  0.95  0.05  0.00  0.00  0.72  0.00
  C8                      1.00   0.00  0.00  0.00  0.17  0.83  0.00  0.00  0.00  0.00
  C15                     1.00   0.00  0.00  0.00  0.00  1.00  0.00  0.00  0.00  0.00
  C21                     1.00   0.00  0.00  0.00  0.01  0.99  0.00  0.00  0.00  0.00
  
  
  *************************
  Conduit Surcharge Summary
  *************************
  
  ----------------------------------------------------------------------------
                                                           Hours        Hours 
                         --------- Hours Full --------   Above Full   Capacity
  Conduit                Both Ends  Upstream  Dnstream   Normal Flow   Limited
  ----------------------------------------------------------------------------
  C6                          0.04      1.89      0.04      1.75         0.04
  C9                          0.01      0.01      0.11      0.01         0.01
  C10                         0.01      0.01      6.63      0.01         0.01
  C13                         0.01      0.01      6.54      0.01         0.01
  C18                         0.01      0.01      6.61      0.01         0.01
  C23                         0.01      0.01      6.60      0.01         0.01
  C4                          0.01      0.01      6.65      0.01         0.01
  C7                          0.01      0.01      6.61      0.01         0.01
  C5                          1.89      1.95      2.09      1.95         1.84
  C8                          0.01      1.32      0.01      1.35         0.01
  C15                         0.01      1.76      0.01      1.79         0.01
  C21                         0.01      0.75      0.01      0.72         0.01
  

  Analysis begun on:  Sun Oct 20 17:02:53 2024
  Analysis ended on:  Sun Oct 20 17:02:53 2024
  Total elapsed time: < 1 sec