
  EPA STORM WATER MANAGEMENT MODEL - VERSION 5.2 (Build 5.2.4)
  PYSWMM TOOLKIT API - VERSION v1.0 (2023-11-27)
  ------------------------------------------------------------

  
  ****************
  Analysis Options
  ****************
  Flow Units ............... CMS
  Process Models:
    Rainfall/Runoff ........ YES
    RDII ................... NO
    Snowmelt ............... NO
    Groundwater ............ NO
    Flow Routing ........... YES
    Ponding Allowed ........ YES
    Water Quality .......... NO
  Infiltration Method ...... HORTON
  Flow Routing Method ...... DYNWAVE
  Surcharge Method ......... EXTRAN
  Starting Date ............ 01/01/2000 08:00:00
  Ending Date .............. 01/01/2000 16:00:00
  Antecedent Dry Days ...... 0.0
  Report Time Step ......... 00:05:00
  Wet Time Step ............ 00:05:00
  Dry Time Step ............ 00:05:00
  Routing Time Step ........ 30.00 sec
  Variable Time Step ....... YES
  Maximum Trials ........... 8
  Number of Threads ........ 1
  Head Tolerance ........... 0.001500 m
  
  
  **************************        Volume         Depth
  Runoff Quantity Continuity     hectare-m            mm
  **************************     ---------       -------
  Total Precipitation ......         4.221        23.426
  Evaporation Loss .........         0.000         0.000
  Infiltration Loss ........         0.000         0.000
  Surface Runoff ...........         4.223        23.435
  Final Storage ............         0.022         0.123
  Continuity Error (%) .....        -0.566
  
  
  **************************        Volume        Volume
  Flow Routing Continuity        hectare-m      10^6 ltr
  **************************     ---------     ---------
  Dry Weather Inflow .......         0.399         3.989
  Wet Weather Inflow .......         4.220        42.204
  Groundwater Inflow .......         0.000         0.000
  RDII Inflow ..............         0.000         0.000
  External Inflow ..........         0.000         0.000
  External Outflow .........         0.615         6.146
  Flooding Loss ............         2.956        29.558
  Evaporation Loss .........         0.000         0.000
  Exfiltration Loss ........         0.000         0.000
  Initial Stored Volume ....         0.000         0.000
  Final Stored Volume ......         0.814         8.139
  Continuity Error (%) .....         5.087
  
  
  *************************
  Highest Continuity Errors
  *************************
  Node T2 (21.49%)
  Node T3 (18.41%)
  Node T4 (17.85%)
  Node T6 (11.62%)
  Node J12 (9.65%)
  
  
  ***************************
  Time-Step Critical Elements
  ***************************
  Link C15 (35.33%)
  Link C21 (4.37%)
  
  
  ********************************
  Highest Flow Instability Indexes
  ********************************
  Link C13 (10)
  Link C12 (6)
  Link C11 (5)
  Link C2 (5)
  Link C3 (5)
  
  
  *********************************
  Most Frequent Nonconverging Nodes
  *********************************
  Node Out_to_WWTP (3.43%)
  Node CSO7 (1.54%)
  Node J4 (1.29%)
  Node CSO9 (1.20%)
  Node CSO8 (0.26%)
  
  
  *************************
  Routing Time Step Summary
  *************************
  Minimum Time Step           :     0.66 sec
  Average Time Step           :    24.44 sec
  Maximum Time Step           :    30.00 sec
  % of Time in Steady State   :     0.00
  Average Iterations per Step :     2.81
  % of Steps Not Converging   :     3.43
  Time Step Frequencies       :
     30.000 - 13.228 sec      :    77.60 %
     13.228 -  5.833 sec      :    21.80 %
      5.833 -  2.572 sec      :     0.26 %
      2.572 -  1.134 sec      :     0.26 %
      1.134 -  0.500 sec      :     0.09 %
  
  
  ***************************
  Subcatchment Runoff Summary
  ***************************
  
  ------------------------------------------------------------------------------------------------------------------------------
                            Total      Total      Total      Total     Imperv       Perv      Total       Total     Peak  Runoff
                           Precip      Runon       Evap      Infil     Runoff     Runoff     Runoff      Runoff   Runoff   Coeff
  Subcatchment                 mm         mm         mm         mm         mm         mm         mm    10^6 ltr      CMS
  ------------------------------------------------------------------------------------------------------------------------------
  SC01                      36.04       0.00       0.00       0.00      36.19       0.00      36.19       11.94     4.44   1.004
  SC02                      16.20       0.00       0.00       0.00      16.19       0.00      16.19        3.68     1.94   0.999
  SC03                      19.84       0.00       0.00       0.00      19.95       0.00      19.95        3.59     2.51   1.005
  SC04                      16.20       0.00       0.00       0.00      16.08       0.00      16.08        1.11     0.48   0.993
  SC05                      36.04       0.00       0.00       0.00      36.17       0.00      36.17        5.64     2.08   1.004
  SC06                      14.61       0.00       0.00       0.00      14.40       0.00      14.40        4.69     0.95   0.986
  SC07                      16.20       0.00       0.00       0.00      16.08       0.00      16.08        0.76     0.33   0.993
  SC08                      19.84       0.00       0.00       0.00      19.87       0.00      19.87        5.56     3.52   1.002
  SC09                      14.61       0.00       0.00       0.00      14.52       0.00      14.52        1.00     0.23   0.994
  SC010                     36.04       0.00       0.00       0.00      36.13       0.00      36.13        4.25     1.53   1.002
  
  
  ******************
  Node Depth Summary
  ******************
  
  ---------------------------------------------------------------------------------
                                 Average  Maximum  Maximum  Time of Max    Reported
                                   Depth    Depth      HGL   Occurrence   Max Depth
  Node                 Type       Meters   Meters   Meters  days hr:min      Meters
  ---------------------------------------------------------------------------------
  J1                   JUNCTION     0.16     0.63    34.63     0  01:30        0.63
  J3                   JUNCTION     0.11     0.14    18.14     0  03:30        0.14
  CSO7                 JUNCTION     0.35     1.20    35.20     0  01:32        1.20
  J5                   JUNCTION     0.09     0.25    32.25     0  01:50        0.25
  CSO9                 JUNCTION     0.62     2.00    42.00     0  01:13        2.00
  J8                   JUNCTION     0.16     0.34    36.34     0  01:41        0.34
  CSO8                 JUNCTION     0.55     2.00    34.00     0  01:17        2.00
  J10                  JUNCTION     0.14     0.52    29.52     0  01:33        0.52
  J13                  JUNCTION     0.10     0.36    29.36     0  01:50        0.36
  J15                  JUNCTION     0.30     1.06    16.06     0  01:31        1.02
  J16                  JUNCTION     0.15     0.50    30.50     0  01:30        0.50
  CSO10                JUNCTION     0.38     1.00    31.00     0  01:10        1.00
  J12                  JUNCTION     0.76     1.09    27.09     0  02:13        1.08
  J4                   JUNCTION     0.23     1.01    34.01     0  01:34        0.74
  J6                   JUNCTION     0.05     0.07    25.07     0  03:50        0.07
  J2                   JUNCTION     0.07     0.08    25.08     0  01:25        0.08
  J19                  JUNCTION     0.15     0.17     8.17     0  01:22        0.17
  J9                   JUNCTION     0.08     0.11    29.11     0  04:40        0.11
  J14                  JUNCTION     0.11     0.15    20.15     0  07:33        0.15
  J17                  JUNCTION     0.06     0.08    20.08     0  03:40        0.08
  J7                   JUNCTION     0.12     0.23    39.23     0  02:18        0.23
  J11                  JUNCTION     0.13     0.30    31.30     0  02:11        0.30
  J18                  JUNCTION     0.08     0.16    29.16     0  02:32        0.16
  Out_to_WWTP          OUTFALL      0.15     0.17     6.17     0  01:23        0.17
  T5                   STORAGE      4.10     5.00    32.00     0  01:22        5.00
  T4                   STORAGE      3.68     5.00    32.00     0  02:05        5.00
  T6                   STORAGE      4.10     5.00    36.00     0  01:39        5.00
  T3                   STORAGE      3.89     5.00    27.00     0  02:08        5.00
  T2                   STORAGE      3.80     5.00    26.00     0  01:52        5.00
  T1                   STORAGE      3.88     5.00    15.00     0  01:21        5.00
  
  
  *******************
  Node Inflow Summary
  *******************
  
  -------------------------------------------------------------------------------------------------
                                  Maximum  Maximum                  Lateral       Total        Flow
                                  Lateral    Total  Time of Max      Inflow      Inflow     Balance
                                   Inflow   Inflow   Occurrence      Volume      Volume       Error
  Node                 Type           CMS      CMS  days hr:min    10^6 ltr    10^6 ltr     Percent
  -------------------------------------------------------------------------------------------------
  J1                   JUNCTION     2.101    2.101     0  01:30         6.2         6.2      -0.004
  J3                   JUNCTION     0.000    0.191     0  03:41           0        3.57       0.902
  CSO7                 JUNCTION     0.340    0.340     0  01:50        1.06        1.06       0.040
  J5                   JUNCTION     0.483    0.559     0  01:50        1.24        1.91       0.077
  CSO9                 JUNCTION     0.234    0.234     0  01:40         1.2         1.2       0.056
  J8                   JUNCTION     0.979    1.106     0  01:40        5.64        6.63       0.059
  CSO8                 JUNCTION     3.529    3.529     0  01:35        5.86        5.86       0.013
  J10                  JUNCTION     2.523    3.008     0  01:30        3.98        6.67      -0.067
  J13                  JUNCTION     1.952    1.952     0  01:50        4.16        4.16      -0.151
  J15                  JUNCTION     0.000    4.731     0  01:30           0        18.1       0.421
  J16                  JUNCTION     4.454    4.454     0  01:30        12.5        12.5      -0.057
  CSO10                JUNCTION     1.535    1.535     0  01:30        4.38        4.38       0.039
  J12                  JUNCTION     0.000    3.042     0  01:32           0        8.11      10.681
  J4                   JUNCTION     0.000    0.085     0  01:32           0        0.67       0.501
  J6                   JUNCTION     0.000    0.028     0  02:35           0       0.469       0.883
  J2                   JUNCTION     0.000    0.039     0  01:22           0       0.939       0.515
  J19                  JUNCTION     0.000    0.271     0  01:22           0        6.16       0.170
  J9                   JUNCTION     0.000    0.075     0  02:30           0        1.31       1.423
  J14                  JUNCTION     0.000    0.124     0  02:27           0        2.18       0.221
  J17                  JUNCTION     0.000    0.033     0  01:52           0       0.602       0.954
  J7                   JUNCTION     0.000    0.127     0  02:18           0       0.994       0.332
  J11                  JUNCTION     0.000    0.486     0  02:11           0         2.7       0.263
  J18                  JUNCTION     0.000    0.202     0  01:49           0        1.47       0.043
  Out_to_WWTP          OUTFALL      0.000    0.271     0  01:23           0        6.15       0.000
  T5                   STORAGE      0.000    2.090     0  01:30           0         6.2       5.943
  T4                   STORAGE      0.000    0.554     0  01:50           0         1.9      21.723
  T6                   STORAGE      0.000    1.098     0  01:41           0        6.62      13.142
  T3                   STORAGE      0.000    3.021     0  01:35           0        7.32      22.563
  T2                   STORAGE      0.000    1.940     0  01:50           0        4.16      27.380
  T1                   STORAGE      0.000    4.345     0  01:32           0          18       2.567
  
  
  **********************
  Node Surcharge Summary
  **********************
  
  Surcharging occurs when water rises above the top of the highest conduit.
  ---------------------------------------------------------------------
                                               Max. Height   Min. Depth
                                   Hours       Above Crown    Below Rim
  Node                 Type      Surcharged         Meters       Meters
  ---------------------------------------------------------------------
  CSO7                 JUNCTION        1.12          0.945        0.000
  CSO9                 JUNCTION        1.35          1.682        0.000
  CSO8                 JUNCTION        1.07          1.547        0.000
  CSO10                JUNCTION        1.53          0.560        0.000
  J4                   JUNCTION        1.10          0.710        0.990
  
  
  *********************
  Node Flooding Summary
  *********************
  
  Flooding refers to all water that overflows a node, whether it ponds or not.
  --------------------------------------------------------------------------
                                                             Total   Maximum
                                 Maximum   Time of Max       Flood    Ponded
                        Hours       Rate    Occurrence      Volume     Depth
  Node                 Flooded       CMS   days hr:min    10^6 ltr    Meters
  --------------------------------------------------------------------------
  CSO7                    1.00     0.263      0  01:50       0.387     0.000
  CSO9                    1.09     0.107      0  01:40       0.205     0.000
  CSO8                    0.90     3.042      0  01:35       3.155     0.000
  CSO10                   1.48     1.330      0  01:30       2.915     0.000
  T5                      2.18     2.050      0  01:30       4.523     0.000
  T4                      2.68     0.320      0  02:05       0.617     0.000
  T6                      3.80     1.069      0  01:41       3.986     0.000
  T3                      1.19     1.319      0  02:17       1.069     0.000
  T2                      1.79     1.746      0  01:52       1.699     0.000
  T1                      2.41     4.074      0  01:32      10.986     0.000
  
  
  **********************
  Storage Volume Summary
  **********************
  
  ------------------------------------------------------------------------------------------------
                         Average    Avg   Evap  Exfil     Maximum    Max    Time of Max    Maximum
                          Volume   Pcnt   Pcnt   Pcnt      Volume   Pcnt     Occurrence    Outflow
  Storage Unit           1000 m³   Full   Loss   Loss     1000 m³   Full    days hr:min        CMS
  ------------------------------------------------------------------------------------------------
  T5                       0.410   82.0    0.0    0.0       0.500  100.0       0  01:22      0.039
  T4                       0.368   73.5    0.0    0.0       0.500  100.0       0  02:05      0.028
  T6                       0.492   81.9    0.0    0.0       0.600  100.0       0  01:39      0.075
  T3                       2.023   77.8    0.0    0.0       2.600  100.0       0  02:08      0.366
  T2                       0.760   76.0    0.0    0.0       1.000  100.0       0  01:52      0.033
  T1                       0.544   77.7    0.0    0.0       0.700  100.0       0  01:21      0.271
  
  
  ***********************
  Outfall Loading Summary
  ***********************
  
  -----------------------------------------------------------
                         Flow       Avg       Max       Total
                         Freq      Flow      Flow      Volume
  Outfall Node           Pcnt       CMS       CMS    10^6 ltr
  -----------------------------------------------------------
  Out_to_WWTP           99.06     0.225     0.271       6.146
  -----------------------------------------------------------
  System                99.06     0.225     0.271       6.146
  
  
  ********************
  Link Flow Summary
  ********************
  
  -----------------------------------------------------------------------------
                                 Maximum  Time of Max   Maximum    Max/    Max/
                                  |Flow|   Occurrence   |Veloc|    Full    Full
  Link                 Type          CMS  days hr:min     m/sec    Flow   Depth
  -----------------------------------------------------------------------------
  C1                   CONDUIT     0.040     0  01:26      1.42    0.01    0.11
  C6                   CONDUIT     0.075     0  01:50      1.29    1.20    0.92
  C2                   CONDUIT     0.028     0  03:50      1.00    0.03    0.18
  C9                   CONDUIT     0.127     0  02:18      1.27    0.43    0.57
  C16                  CONDUIT     0.487     0  02:01      1.80    0.05    0.20
  C3                   CONDUIT     0.125     0  05:18      1.91    0.05    0.14
  C19                  CONDUIT     0.033     0  03:40      0.71    0.01    0.52
  C11                  CONDUIT     0.191     0  03:30      1.78    0.01    0.29
  C20                  CONDUIT     4.435     0  01:30      5.78    0.14    0.39
  C22                  CONDUIT     0.202     0  01:49      1.66    0.09    0.60
  C12                  CONDUIT     0.075     0  04:40      0.61    0.01    0.30
  C17                  CONDUIT     3.005     0  01:33      4.49    0.15    0.34
  C10                  CONDUIT     1.098     0  01:41      1.66    0.11    0.61
  C13                  CONDUIT     3.021     0  01:35      2.21    0.18    0.77
  C18                  CONDUIT     1.940     0  01:50      3.36    0.07    0.59
  C23                  CONDUIT     4.345     0  01:32      2.71    0.48    0.85
  C4                   CONDUIT     2.090     0  01:30      3.06    0.51    0.82
  C7                   CONDUIT     0.554     0  01:50      1.44    0.14    0.62
  C14                  CONDUIT     0.271     0  01:23      2.08    0.02    0.09
  C5                   CONDUIT     0.085     0  01:32      1.66    1.45    1.00
  C8                   CONDUIT     0.127     0  02:18      1.80    1.60    0.86
  C15                  CONDUIT     0.486     0  02:11      3.55    1.55    0.83
  C21                  CONDUIT     0.202     0  01:49      1.86    1.16    0.69
  V4                   ORIFICE     0.028     0  02:35                      0.35
  V5                   ORIFICE     0.039     0  01:22                      1.00
  V1                   ORIFICE     0.271     0  01:22                      1.00
  V6                   ORIFICE     0.075     0  02:30                      0.43
  V3                   ORIFICE     0.124     0  02:27                      0.65
  V2                   ORIFICE     0.033     0  01:52                      0.24
  
  
  ***************************
  Flow Classification Summary
  ***************************
  
  -------------------------------------------------------------------------------------
                      Adjusted    ---------- Fraction of Time in Flow Class ---------- 
                       /Actual         Up    Down  Sub   Sup   Up    Down  Norm  Inlet 
  Conduit               Length    Dry  Dry   Dry   Crit  Crit  Crit  Crit  Ltd   Ctrl  
  -------------------------------------------------------------------------------------
  C1                      1.00   0.00  0.00  0.00  0.02  0.98  0.00  0.00  0.92  0.00
  C6                      1.00   0.00  0.00  0.00  0.16  0.84  0.00  0.00  0.00  0.00
  C2                      1.00   0.00  0.00  0.00  0.70  0.30  0.00  0.00  0.98  0.00
  C9                      1.00   0.00  0.00  0.00  1.00  0.00  0.00  0.00  1.00  0.00
  C16                     1.00   0.00  0.00  0.00  0.67  0.33  0.00  0.00  0.57  0.00
  C3                      1.00   0.00  0.01  0.00  0.05  0.94  0.00  0.00  0.52  0.00
  C19                     1.00   0.00  0.00  0.00  1.00  0.00  0.00  0.00  1.00  0.00
  C11                     1.00   0.00  0.00  0.00  0.31  0.69  0.00  0.00  1.00  0.00
  C20                     1.00   0.00  0.00  0.00  0.60  0.40  0.00  0.00  0.97  0.00
  C22                     1.00   0.00  0.00  0.00  0.93  0.07  0.00  0.00  1.00  0.00
  C12                     1.00   0.00  0.00  0.00  1.00  0.00  0.00  0.00  1.00  0.00
  C17                     1.00   0.00  0.00  0.00  0.76  0.24  0.00  0.00  0.92  0.00
  C10                     1.00   0.00  0.00  0.00  0.96  0.04  0.00  0.00  0.98  0.00
  C13                     1.00   0.00  0.00  0.00  0.83  0.17  0.00  0.00  0.13  0.00
  C18                     1.00   0.00  0.00  0.00  0.94  0.06  0.00  0.00  0.97  0.00
  C23                     1.00   0.00  0.00  0.00  0.85  0.15  0.00  0.00  0.85  0.00
  C4                      1.00   0.00  0.00  0.00  0.93  0.07  0.00  0.00  0.93  0.00
  C7                      1.00   0.00  0.00  0.00  0.94  0.06  0.00  0.00  0.97  0.00
  C14                     1.00   0.00  0.01  0.00  0.01  0.98  0.00  0.00  0.28  0.00
  C5                      1.00   0.00  0.00  0.00  0.93  0.07  0.00  0.00  0.84  0.00
  C8                      1.00   0.00  0.00  0.00  0.20  0.80  0.00  0.00  0.00  0.00
  C15                     1.00   0.00  0.00  0.00  0.00  1.00  0.00  0.00  0.00  0.00
  C21                     1.00   0.00  0.00  0.00  0.01  0.99  0.00  0.00  0.00  0.00
  
  
  *************************
  Conduit Surcharge Summary
  *************************
  
  ----------------------------------------------------------------------------
                                                           Hours        Hours 
                         --------- Hours Full --------   Above Full   Capacity
  Conduit                Both Ends  Upstream  Dnstream   Normal Flow   Limited
  ----------------------------------------------------------------------------
  C6                          0.01      1.10      0.01      1.01         0.01
  C19                         0.01      0.01      0.08      0.01         0.01
  C22                         0.01      0.01      0.22      0.01         0.01
  C10                         0.01      0.01      6.57      0.01         0.01
  C13                         0.01      0.01      6.36      0.01         0.01
  C18                         0.01      0.01      6.23      0.01         0.01
  C23                         0.01      0.01      6.65      0.01         0.01
  C4                          0.01      0.01      6.69      0.01         0.01
  C7                          0.01      0.01      6.27      0.01         0.01
  C5                          1.09      1.12      1.19      1.12         1.07
  C8                          0.01      1.35      0.01      1.34         0.01
  C15                         0.01      1.07      0.01      1.09         0.01
  C21                         0.01      1.53      0.01      1.51         0.01
  

  Analysis begun on:  Sun Oct 20 17:00:07 2024
  Analysis ended on:  Sun Oct 20 17:00:07 2024
  Total elapsed time: < 1 sec