
  EPA STORM WATER MANAGEMENT MODEL - VERSION 5.2 (Build 5.2.4)
  PYSWMM TOOLKIT API - VERSION v1.0 (2023-11-27)
  ------------------------------------------------------------

  
  ****************
  Analysis Options
  ****************
  Flow Units ............... CMS
  Process Models:
    Rainfall/Runoff ........ YES
    RDII ................... NO
    Snowmelt ............... NO
    Groundwater ............ NO
    Flow Routing ........... YES
    Ponding Allowed ........ YES
    Water Quality .......... NO
  Infiltration Method ...... HORTON
  Flow Routing Method ...... DYNWAVE
  Surcharge Method ......... EXTRAN
  Starting Date ............ 01/01/2000 08:00:00
  Ending Date .............. 01/01/2000 16:00:00
  Antecedent Dry Days ...... 0.0
  Report Time Step ......... 00:05:00
  Wet Time Step ............ 00:05:00
  Dry Time Step ............ 00:05:00
  Routing Time Step ........ 30.00 sec
  Variable Time Step ....... YES
  Maximum Trials ........... 8
  Number of Threads ........ 1
  Head Tolerance ........... 0.001500 m
  
  
  **************************        Volume         Depth
  Runoff Quantity Continuity     hectare-m            mm
  **************************     ---------       -------
  Total Precipitation ......         3.092        17.160
  Evaporation Loss .........         0.000         0.000
  Infiltration Loss ........         0.000         0.000
  Surface Runoff ...........         3.075        17.065
  Final Storage ............         0.024         0.131
  Continuity Error (%) .....        -0.206
  
  
  **************************        Volume        Volume
  Flow Routing Continuity        hectare-m      10^6 ltr
  **************************     ---------     ---------
  Dry Weather Inflow .......         0.399         3.989
  Wet Weather Inflow .......         3.074        30.742
  Groundwater Inflow .......         0.000         0.000
  RDII Inflow ..............         0.000         0.000
  External Inflow ..........         0.000         0.000
  External Outflow .........         0.596         5.964
  Flooding Loss ............         1.807        18.069
  Evaporation Loss .........         0.000         0.000
  Exfiltration Loss ........         0.000         0.000
  Initial Stored Volume ....         0.000         0.000
  Final Stored Volume ......         0.814         8.137
  Continuity Error (%) .....         7.375
  
  
  *************************
  Highest Continuity Errors
  *************************
  Node T5 (19.27%)
  Node T2 (18.65%)
  Node T4 (14.92%)
  Node T3 (13.99%)
  Node T6 (10.91%)
  
  
  ***************************
  Time-Step Critical Elements
  ***************************
  Link C15 (51.98%)
  
  
  ********************************
  Highest Flow Instability Indexes
  ********************************
  Link C13 (9)
  Link C12 (5)
  Link C2 (5)
  Link C11 (4)
  Link C19 (4)
  
  
  *********************************
  Most Frequent Nonconverging Nodes
  *********************************
  Node Out_to_WWTP (2.26%)
  Node CSO7 (1.32%)
  Node J4 (1.17%)
  Node CSO9 (1.09%)
  Node CSO8 (0.16%)
  
  
  *************************
  Routing Time Step Summary
  *************************
  Minimum Time Step           :     0.03 sec
  Average Time Step           :    22.18 sec
  Maximum Time Step           :    30.00 sec
  % of Time in Steady State   :     0.00
  Average Iterations per Step :     2.41
  % of Steps Not Converging   :     2.26
  Time Step Frequencies       :
     30.000 - 13.228 sec      :    62.17 %
     13.228 -  5.833 sec      :    37.21 %
      5.833 -  2.572 sec      :     0.31 %
      2.572 -  1.134 sec      :     0.16 %
      1.134 -  0.500 sec      :     0.16 %
  
  
  ***************************
  Subcatchment Runoff Summary
  ***************************
  
  ------------------------------------------------------------------------------------------------------------------------------
                            Total      Total      Total      Total     Imperv       Perv      Total       Total     Peak  Runoff
                           Precip      Runon       Evap      Infil     Runoff     Runoff     Runoff      Runoff   Runoff   Coeff
  Subcatchment                 mm         mm         mm         mm         mm         mm         mm    10^6 ltr      CMS
  ------------------------------------------------------------------------------------------------------------------------------
  SC01                       9.59       0.00       0.00       0.00       9.53       0.00       9.53        3.15     0.70   0.994
  SC02                      19.32       0.00       0.00       0.00      19.28       0.00      19.28        4.39     0.86   0.998
  SC03                      26.17       0.00       0.00       0.00      26.17       0.00      26.17        4.71     1.21   1.000
  SC04                      19.32       0.00       0.00       0.00      19.16       0.00      19.16        1.32     0.24   0.992
  SC05                       9.59       0.00       0.00       0.00       9.53       0.00       9.53        1.49     0.32   0.993
  SC06                      16.35       0.00       0.00       0.00      16.12       0.00      16.12        5.25     0.95   0.986
  SC07                      19.32       0.00       0.00       0.00      19.16       0.00      19.16        0.91     0.16   0.992
  SC08                      26.17       0.00       0.00       0.00      26.10       0.00      26.10        7.31     1.70   0.997
  SC09                      16.35       0.00       0.00       0.00      16.23       0.00      16.23        1.12     0.21   0.993
  SC010                      9.59       0.00       0.00       0.00       9.50       0.00       9.50        1.12     0.21   0.991
  
  
  ******************
  Node Depth Summary
  ******************
  
  ---------------------------------------------------------------------------------
                                 Average  Maximum  Maximum  Time of Max    Reported
                                   Depth    Depth      HGL   Occurrence   Max Depth
  Node                 Type       Meters   Meters   Meters  days hr:min      Meters
  ---------------------------------------------------------------------------------
  J1                   JUNCTION     0.10     0.19    34.19     0  01:26        0.19
  J3                   JUNCTION     0.10     0.14    18.14     0  04:10        0.14
  CSO7                 JUNCTION     0.53     1.20    35.20     0  01:20        1.20
  J5                   JUNCTION     0.10     0.19    32.19     0  02:21        0.19
  CSO9                 JUNCTION     0.76     2.00    42.00     0  01:36        2.00
  J8                   JUNCTION     0.17     0.34    36.34     0  02:55        0.34
  CSO8                 JUNCTION     0.84     2.00    34.00     0  01:20        2.00
  J10                  JUNCTION     0.18     0.39    29.39     0  02:21        0.39
  J13                  JUNCTION     0.11     0.25    29.25     0  02:20        0.25
  J15                  JUNCTION     0.20     0.32    15.32     0  01:31        0.32
  J16                  JUNCTION     0.09     0.21    30.21     0  01:25        0.20
  CSO10                JUNCTION     0.21     1.00    31.00     0  01:24        1.00
  J12                  JUNCTION     0.74     1.17    27.17     0  02:25        1.17
  J4                   JUNCTION     0.34     1.07    34.07     0  01:20        0.75
  J6                   JUNCTION     0.06     0.07    25.07     0  02:40        0.07
  J2                   JUNCTION     0.07     0.08    25.08     0  03:47        0.08
  J19                  JUNCTION     0.15     0.17     8.17     0  02:07        0.17
  J9                   JUNCTION     0.08     0.11    29.11     0  05:10        0.11
  J14                  JUNCTION     0.11     0.15    20.15     0  04:28        0.15
  J17                  JUNCTION     0.06     0.08    20.08     0  02:10        0.08
  J7                   JUNCTION     0.13     0.23    39.23     0  02:56        0.23
  J11                  JUNCTION     0.16     0.30    31.30     0  03:04        0.30
  J18                  JUNCTION     0.08     0.16    29.16     0  01:30        0.16
  Out_to_WWTP          OUTFALL      0.15     0.17     6.17     0  03:59        0.17
  T5                   STORAGE      3.63     5.00    32.00     0  02:35        5.00
  T4                   STORAGE      3.85     5.00    32.00     0  02:15        5.00
  T6                   STORAGE      3.98     5.00    36.00     0  01:56        5.00
  T3                   STORAGE      3.80     5.00    27.00     0  02:20        5.00
  T2                   STORAGE      4.01     5.00    26.00     0  02:01        5.00
  T1                   STORAGE      3.67     5.00    15.00     0  02:06        5.00
  
  
  *******************
  Node Inflow Summary
  *******************
  
  -------------------------------------------------------------------------------------------------
                                  Maximum  Maximum                  Lateral       Total        Flow
                                  Lateral    Total  Time of Max      Inflow      Inflow     Balance
                                   Inflow   Inflow   Occurrence      Volume      Volume       Error
  Node                 Type           CMS      CMS  days hr:min    10^6 ltr    10^6 ltr     Percent
  -------------------------------------------------------------------------------------------------
  J1                   JUNCTION     0.334    0.334     0  01:25        2.05        2.05       0.006
  J3                   JUNCTION     0.000    0.192     0  03:38           0        3.39       1.104
  CSO7                 JUNCTION     0.173    0.173     0  02:20         1.2         1.2       0.048
  J5                   JUNCTION     0.240    0.313     0  02:20        1.45        2.28       0.052
  CSO9                 JUNCTION     0.221    0.221     0  02:55        1.32        1.32       0.044
  J8                   JUNCTION     0.984    1.111     0  02:55         6.2        7.32       0.067
  CSO8                 JUNCTION     1.711    1.711     0  02:20         7.6         7.6       0.004
  J10                  JUNCTION     1.226    1.712     0  02:20         5.1        9.11      -0.051
  J13                  JUNCTION     0.879    0.879     0  02:20        4.85        4.85      -0.164
  J15                  JUNCTION     0.000    0.951     0  01:26           0        8.86       0.874
  J16                  JUNCTION     0.719    0.719     0  01:25         3.7         3.7      -0.022
  CSO10                JUNCTION     0.211    0.211     0  01:25        1.26        1.26       0.025
  J12                  JUNCTION     0.000    1.724     0  02:21           0        10.5       7.661
  J4                   JUNCTION     0.000    0.081     0  01:20           0       0.835       0.402
  J6                   JUNCTION     0.000    0.028     0  02:25           0         0.5       0.794
  J2                   JUNCTION     0.000    0.039     0  02:35           0       0.892       0.565
  J19                  JUNCTION     0.000    0.271     0  02:06           0        5.97       0.182
  J9                   JUNCTION     0.000    0.075     0  01:57           0        1.35       0.684
  J14                  JUNCTION     0.000    0.124     0  03:45           0        2.01       0.364
  J17                  JUNCTION     0.000    0.033     0  02:02           0        0.56       1.066
  J7                   JUNCTION     0.000    0.127     0  02:56           0        1.13       0.281
  J11                  JUNCTION     0.000    0.486     0  03:04           0        4.02       0.179
  J18                  JUNCTION     0.000    0.202     0  01:30           0        1.25       0.066
  Out_to_WWTP          OUTFALL      0.000    0.271     0  02:08           0        5.96       0.000
  T5                   STORAGE      0.000    0.330     0  01:26           0        2.05      23.866
  T4                   STORAGE      0.000    0.313     0  02:22           0        2.28      17.532
  T6                   STORAGE      0.000    1.104     0  02:55           0        7.32      12.250
  T3                   STORAGE      0.000    2.561     0  02:27           0        9.71      16.267
  T2                   STORAGE      0.000    0.876     0  02:20           0        4.86      22.929
  T1                   STORAGE      0.000    0.897     0  01:31           0        8.78       6.864
  
  
  **********************
  Node Surcharge Summary
  **********************
  
  Surcharging occurs when water rises above the top of the highest conduit.
  ---------------------------------------------------------------------
                                               Max. Height   Min. Depth
                                   Hours       Above Crown    Below Rim
  Node                 Type      Surcharged         Meters       Meters
  ---------------------------------------------------------------------
  CSO7                 JUNCTION        1.93          0.945        0.000
  CSO9                 JUNCTION        1.83          1.682        0.000
  CSO8                 JUNCTION        1.88          1.547        0.000
  CSO10                JUNCTION        0.21          0.560        0.000
  J4                   JUNCTION        1.90          0.772        0.928
  
  
  *********************
  Node Flooding Summary
  *********************
  
  Flooding refers to all water that overflows a node, whether it ponds or not.
  --------------------------------------------------------------------------
                                                             Total   Maximum
                                 Maximum   Time of Max       Flood    Ponded
                        Hours       Rate    Occurrence      Volume     Depth
  Node                 Flooded       CMS   days hr:min    10^6 ltr    Meters
  --------------------------------------------------------------------------
  CSO7                    1.77     0.100      0  02:20       0.367     0.000
  CSO9                    1.48     0.094      0  02:55       0.188     0.000
  CSO8                    1.71     1.224      0  02:20       3.585     0.000
  CSO10                   0.11     0.010      0  01:25       0.002     0.000
  T5                      1.25     0.166      0  02:51       0.368     0.000
  T4                      2.78     0.298      0  02:22       0.969     0.000
  T6                      3.53     1.066      0  02:55       4.597     0.000
  T3                      2.31     2.435      0  02:28       3.765     0.000
  T2                      2.65     0.861      0  02:20       2.440     0.000
  T1                      1.64     0.506      0  02:31       1.780     0.000
  
  
  **********************
  Storage Volume Summary
  **********************
  
  ------------------------------------------------------------------------------------------------
                         Average    Avg   Evap  Exfil     Maximum    Max    Time of Max    Maximum
                          Volume   Pcnt   Pcnt   Pcnt      Volume   Pcnt     Occurrence    Outflow
  Storage Unit           1000 m³   Full   Loss   Loss     1000 m³   Full    days hr:min        CMS
  ------------------------------------------------------------------------------------------------
  T5                       0.363   72.5    0.0    0.0       0.500  100.0       0  02:35      0.039
  T4                       0.385   77.0    0.0    0.0       0.500  100.0       0  02:15      0.028
  T6                       0.477   79.5    0.0    0.0       0.600  100.0       0  01:56      0.075
  T3                       1.976   76.0    0.0    0.0       2.600  100.0       0  02:20      0.135
  T2                       0.801   80.1    0.0    0.0       1.000  100.0       0  02:01      0.033
  T1                       0.513   73.3    0.0    0.0       0.700  100.0       0  02:06      0.271
  
  
  ***********************
  Outfall Loading Summary
  ***********************
  
  -----------------------------------------------------------
                         Flow       Avg       Max       Total
                         Freq      Flow      Flow      Volume
  Outfall Node           Pcnt       CMS       CMS    10^6 ltr
  -----------------------------------------------------------
  Out_to_WWTP           99.14     0.217     0.271       5.964
  -----------------------------------------------------------
  System                99.14     0.217     0.271       5.964
  
  
  ********************
  Link Flow Summary
  ********************
  
  -----------------------------------------------------------------------------
                                 Maximum  Time of Max   Maximum    Max/    Max/
                                  |Flow|   Occurrence   |Veloc|    Full    Full
  Link                 Type          CMS  days hr:min     m/sec    Flow   Depth
  -----------------------------------------------------------------------------
  C1                   CONDUIT     0.039     0  03:19      1.07    0.01    0.11
  C6                   CONDUIT     0.073     0  02:21      1.29    1.16    0.81
  C2                   CONDUIT     0.028     0  02:40      1.00    0.03    0.18
  C9                   CONDUIT     0.127     0  02:56      1.28    0.43    0.57
  C16                  CONDUIT     0.486     0  02:15      1.80    0.05    0.17
  C3                   CONDUIT     0.125     0  04:48      1.90    0.05    0.14
  C19                  CONDUIT     0.033     0  02:10      0.71    0.01    0.19
  C11                  CONDUIT     0.190     0  04:10      1.80    0.01    0.11
  C20                  CONDUIT     0.710     0  01:26      3.17    0.02    0.13
  C22                  CONDUIT     0.202     0  01:30      1.63    0.09    0.30
  C12                  CONDUIT     0.075     0  05:10      0.59    0.01    0.31
  C17                  CONDUIT     1.684     0  02:21      3.46    0.08    0.39
  C10                  CONDUIT     1.104     0  02:55      1.66    0.11    0.61
  C13                  CONDUIT     2.561     0  02:27      2.06    0.15    0.79
  C18                  CONDUIT     0.876     0  02:20      3.36    0.03    0.56
  C23                  CONDUIT     0.897     0  01:31      1.30    0.10    0.61
  C4                   CONDUIT     0.330     0  01:26      3.06    0.08    0.60
  C7                   CONDUIT     0.313     0  02:22      1.44    0.08    0.59
  C14                  CONDUIT     0.271     0  02:08      2.08    0.02    0.09
  C5                   CONDUIT     0.081     0  01:20      1.57    1.38    1.00
  C8                   CONDUIT     0.127     0  02:56      1.77    1.60    0.86
  C15                  CONDUIT     0.486     0  03:04      3.47    1.55    0.83
  C21                  CONDUIT     0.202     0  01:30      1.84    1.16    0.69
  V4                   ORIFICE     0.028     0  02:25                      0.35
  V5                   ORIFICE     0.039     0  02:35                      1.00
  V1                   ORIFICE     0.271     0  02:06                      1.00
  V6                   ORIFICE     0.075     0  01:57                      0.43
  V3                   ORIFICE     0.124     0  03:45                      0.65
  V2                   ORIFICE     0.033     0  02:02                      0.24
  
  
  ***************************
  Flow Classification Summary
  ***************************
  
  -------------------------------------------------------------------------------------
                      Adjusted    ---------- Fraction of Time in Flow Class ---------- 
                       /Actual         Up    Down  Sub   Sup   Up    Down  Norm  Inlet 
  Conduit               Length    Dry  Dry   Dry   Crit  Crit  Crit  Crit  Ltd   Ctrl  
  -------------------------------------------------------------------------------------
  C1                      1.00   0.00  0.00  0.00  0.09  0.91  0.00  0.00  0.94  0.00
  C6                      1.00   0.00  0.00  0.00  0.27  0.73  0.00  0.00  0.00  0.00
  C2                      1.00   0.00  0.00  0.00  0.60  0.40  0.00  0.00  0.99  0.00
  C9                      1.00   0.00  0.00  0.00  1.00  0.00  0.00  0.00  1.00  0.00
  C16                     1.00   0.00  0.00  0.00  0.58  0.42  0.00  0.00  0.54  0.00
  C3                      1.00   0.00  0.01  0.00  0.05  0.95  0.00  0.00  0.59  0.00
  C19                     1.00   0.00  0.00  0.00  1.00  0.00  0.00  0.00  1.00  0.00
  C11                     1.00   0.00  0.00  0.00  0.37  0.63  0.00  0.00  1.00  0.00
  C20                     1.00   0.00  0.00  0.00  0.55  0.45  0.00  0.00  0.98  0.00
  C22                     1.00   0.00  0.00  0.00  0.72  0.28  0.00  0.00  1.00  0.00
  C12                     1.00   0.00  0.00  0.00  1.00  0.00  0.00  0.00  1.00  0.00
  C17                     1.00   0.00  0.00  0.00  0.72  0.28  0.00  0.00  0.93  0.00
  C10                     1.00   0.00  0.00  0.00  0.96  0.04  0.00  0.00  0.98  0.00
  C13                     1.00   0.00  0.00  0.00  0.84  0.16  0.00  0.00  0.18  0.00
  C18                     1.00   0.00  0.00  0.00  0.93  0.07  0.00  0.00  0.97  0.00
  C23                     1.00   0.00  0.00  0.00  0.84  0.16  0.00  0.00  0.95  0.00
  C4                      1.00   0.00  0.00  0.00  0.96  0.04  0.00  0.00  0.98  0.00
  C7                      1.00   0.00  0.00  0.00  0.95  0.05  0.00  0.00  0.97  0.00
  C14                     1.00   0.00  0.01  0.00  0.01  0.98  0.00  0.00  0.33  0.00
  C5                      1.00   0.00  0.00  0.00  0.94  0.06  0.00  0.00  0.72  0.00
  C8                      1.00   0.00  0.00  0.00  0.25  0.75  0.00  0.00  0.00  0.00
  C15                     1.00   0.00  0.00  0.00  0.00  1.00  0.00  0.00  0.00  0.00
  C21                     1.00   0.00  0.00  0.00  0.01  0.99  0.00  0.00  0.00  0.00
  
  
  *************************
  Conduit Surcharge Summary
  *************************
  
  ----------------------------------------------------------------------------
                                                           Hours        Hours 
                         --------- Hours Full --------   Above Full   Capacity
  Conduit                Both Ends  Upstream  Dnstream   Normal Flow   Limited
  ----------------------------------------------------------------------------
  C6                          0.01      1.90      0.01      1.82         0.01
  C10                         0.01      0.01      6.37      0.01         0.01
  C13                         0.01      0.01      6.18      0.01         0.01
  C18                         0.01      0.01      6.38      0.01         0.01
  C23                         0.01      0.01      6.41      0.01         0.01
  C4                          0.01      0.01      6.48      0.01         0.01
  C7                          0.01      0.01      6.46      0.01         0.01
  C5                          1.90      1.93      2.00      1.95         1.87
  C8                          0.01      1.83      0.01      1.85         0.01
  C15                         0.01      1.88      0.01      1.90         0.01
  C21                         0.01      0.21      0.01      0.19         0.01
  

  Analysis begun on:  Sun Oct 20 17:15:19 2024
  Analysis ended on:  Sun Oct 20 17:15:19 2024
  Total elapsed time: < 1 sec