
  EPA STORM WATER MANAGEMENT MODEL - VERSION 5.2 (Build 5.2.4)
  PYSWMM TOOLKIT API - VERSION v1.0 (2023-11-27)
  ------------------------------------------------------------

  
  ****************
  Analysis Options
  ****************
  Flow Units ............... CMS
  Process Models:
    Rainfall/Runoff ........ YES
    RDII ................... NO
    Snowmelt ............... NO
    Groundwater ............ NO
    Flow Routing ........... YES
    Ponding Allowed ........ YES
    Water Quality .......... NO
  Infiltration Method ...... HORTON
  Flow Routing Method ...... DYNWAVE
  Surcharge Method ......... EXTRAN
  Starting Date ............ 01/01/2000 08:00:00
  Ending Date .............. 01/01/2000 16:00:00
  Antecedent Dry Days ...... 0.0
  Report Time Step ......... 00:05:00
  Wet Time Step ............ 00:05:00
  Dry Time Step ............ 00:05:00
  Routing Time Step ........ 30.00 sec
  Variable Time Step ....... YES
  Maximum Trials ........... 8
  Number of Threads ........ 1
  Head Tolerance ........... 0.001500 m
  
  
  **************************        Volume         Depth
  Runoff Quantity Continuity     hectare-m            mm
  **************************     ---------       -------
  Total Precipitation ......         3.305        18.341
  Evaporation Loss .........         0.000         0.000
  Infiltration Loss ........         0.000         0.000
  Surface Runoff ...........         3.340        18.537
  Final Storage ............         0.021         0.118
  Continuity Error (%) .....        -1.716
  
  
  **************************        Volume        Volume
  Flow Routing Continuity        hectare-m      10^6 ltr
  **************************     ---------     ---------
  Dry Weather Inflow .......         0.399         3.989
  Wet Weather Inflow .......         3.341        33.414
  Groundwater Inflow .......         0.000         0.000
  RDII Inflow ..............         0.000         0.000
  External Inflow ..........         0.000         0.000
  External Outflow .........         0.573         5.733
  Flooding Loss ............         2.134        21.342
  Evaporation Loss .........         0.000         0.000
  Exfiltration Loss ........         0.000         0.000
  Initial Stored Volume ....         0.000         0.000
  Final Stored Volume ......         0.807         8.072
  Continuity Error (%) .....         6.033
  
  
  *************************
  Highest Continuity Errors
  *************************
  Node T2 (29.27%)
  Node T4 (22.75%)
  Node T3 (17.53%)
  Node T5 (13.06%)
  Node J12 (8.84%)
  
  
  ***************************
  Time-Step Critical Elements
  ***************************
  Link C15 (33.21%)
  
  
  ********************************
  Highest Flow Instability Indexes
  ********************************
  Link C13 (10)
  Link C3 (7)
  Link C11 (6)
  Link C2 (6)
  Link C12 (5)
  
  
  *********************************
  Most Frequent Nonconverging Nodes
  *********************************
  Node Out_to_WWTP (2.86%)
  Node CSO7 (1.70%)
  Node J4 (1.52%)
  Node CSO9 (0.90%)
  Node J8 (0.63%)
  
  
  *************************
  Routing Time Step Summary
  *************************
  Minimum Time Step           :     0.23 sec
  Average Time Step           :    25.51 sec
  Maximum Time Step           :    30.00 sec
  % of Time in Steady State   :     0.00
  Average Iterations per Step :     2.60
  % of Steps Not Converging   :     2.86
  Time Step Frequencies       :
     30.000 - 13.228 sec      :    82.41 %
     13.228 -  5.833 sec      :    17.24 %
      5.833 -  2.572 sec      :     0.18 %
      2.572 -  1.134 sec      :     0.18 %
      1.134 -  0.500 sec      :     0.00 %
  
  
  ***************************
  Subcatchment Runoff Summary
  ***************************
  
  ------------------------------------------------------------------------------------------------------------------------------
                            Total      Total      Total      Total     Imperv       Perv      Total       Total     Peak  Runoff
                           Precip      Runon       Evap      Infil     Runoff     Runoff     Runoff      Runoff   Runoff   Coeff
  Subcatchment                 mm         mm         mm         mm         mm         mm         mm    10^6 ltr      CMS
  ------------------------------------------------------------------------------------------------------------------------------
  SC01                      13.28       0.00       0.00       0.00      13.52       0.00      13.52        4.46     4.62   1.018
  SC02                      11.30       0.00       0.00       0.00      11.43       0.00      11.43        2.60     2.56   1.012
  SC03                      23.36       0.00       0.00       0.00      23.76       0.00      23.76        4.28     4.70   1.017
  SC04                      11.30       0.00       0.00       0.00      11.26       0.00      11.26        0.78     0.52   0.996
  SC05                      13.28       0.00       0.00       0.00      13.50       0.00      13.50        2.11     2.13   1.016
  SC06                      26.37       0.00       0.00       0.00      26.47       0.00      26.47        8.62     5.99   1.004
  SC07                      11.30       0.00       0.00       0.00      11.26       0.00      11.26        0.53     0.36   0.996
  SC08                      23.36       0.00       0.00       0.00      23.62       0.00      23.62        6.61     6.21   1.011
  SC09                      26.37       0.00       0.00       0.00      26.67       0.00      26.67        1.84     1.56   1.012
  SC010                     13.28       0.00       0.00       0.00      13.44       0.00      13.44        1.58     1.47   1.012
  
  
  ******************
  Node Depth Summary
  ******************
  
  ---------------------------------------------------------------------------------
                                 Average  Maximum  Maximum  Time of Max    Reported
                                   Depth    Depth      HGL   Occurrence   Max Depth
  Node                 Type       Meters   Meters   Meters  days hr:min      Meters
  ---------------------------------------------------------------------------------
  J1                   JUNCTION     0.10     0.58    34.58     0  01:50        0.54
  J3                   JUNCTION     0.10     0.14    18.14     0  03:40        0.14
  CSO7                 JUNCTION     0.28     1.20    35.20     0  01:36        1.20
  J5                   JUNCTION     0.08     0.26    32.26     0  01:45        0.25
  CSO9                 JUNCTION     0.42     2.00    42.00     0  01:36        2.00
  J8                   JUNCTION     0.21     2.64    38.64     0  01:48        2.04
  CSO8                 JUNCTION     0.45     2.00    34.00     0  01:27        2.00
  J10                  JUNCTION     0.14     0.68    29.68     0  01:40        0.68
  J13                  JUNCTION     0.08     0.42    29.42     0  01:45        0.41
  J15                  JUNCTION     0.20     0.86    15.86     0  01:53        0.83
  J16                  JUNCTION     0.09     0.51    30.51     0  01:50        0.51
  CSO10                JUNCTION     0.21     1.00    31.00     0  01:41        1.00
  J12                  JUNCTION     0.78     1.08    27.08     0  02:06        1.06
  J4                   JUNCTION     0.19     0.76    33.76     0  02:15        0.75
  J6                   JUNCTION     0.05     0.07    25.07     0  03:25        0.07
  J2                   JUNCTION     0.07     0.08    25.08     0  02:45        0.08
  J19                  JUNCTION     0.14     0.17     8.17     0  01:52        0.17
  J9                   JUNCTION     0.08     0.11    29.11     0  02:25        0.11
  J14                  JUNCTION     0.11     0.15    20.15     0  03:02        0.15
  J17                  JUNCTION     0.06     0.08    20.08     0  02:25        0.08
  J7                   JUNCTION     0.10     0.23    39.23     0  02:15        0.23
  J11                  JUNCTION     0.12     0.30    31.30     0  02:07        0.30
  J18                  JUNCTION     0.06     0.16    29.16     0  02:10        0.16
  Out_to_WWTP          OUTFALL      0.14     0.17     6.17     0  03:22        0.17
  T5                   STORAGE      3.61     5.00    32.00     0  01:51        5.00
  T4                   STORAGE      3.62     5.00    32.00     0  02:29        5.00
  T6                   STORAGE      3.89     5.00    36.00     0  01:45        5.00
  T3                   STORAGE      3.90     5.00    27.00     0  01:58        5.00
  T2                   STORAGE      3.83     5.00    26.00     0  01:56        5.00
  T1                   STORAGE      3.39     5.00    15.00     0  01:51        5.00
  
  
  *******************
  Node Inflow Summary
  *******************
  
  -------------------------------------------------------------------------------------------------
                                  Maximum  Maximum                  Lateral       Total        Flow
                                  Lateral    Total  Time of Max      Inflow      Inflow     Balance
                                   Inflow   Inflow   Occurrence      Volume      Volume       Error
  Node                 Type           CMS      CMS  days hr:min    10^6 ltr    10^6 ltr     Percent
  -------------------------------------------------------------------------------------------------
  J1                   JUNCTION     2.144    2.144     0  01:50        2.67        2.67       0.015
  J3                   JUNCTION     0.000    0.192     0  03:23           0        3.54       1.059
  CSO7                 JUNCTION     0.369    0.369     0  01:45       0.828       0.828       0.053
  J5                   JUNCTION     0.526    0.601     0  01:45       0.906        1.48       0.071
  CSO9                 JUNCTION     1.567    1.567     0  01:45        2.04        2.04       0.021
  J8                   JUNCTION     6.024    6.151     0  01:50        9.57        10.3      -0.026
  CSO8                 JUNCTION     6.220    6.220     0  01:40        6.91        6.91       0.006
  J10                  JUNCTION     4.709    5.194     0  01:40        4.66        6.86      -0.131
  J13                  JUNCTION     2.576    2.576     0  01:45        3.07        3.07      -0.415
  J15                  JUNCTION     0.000    4.905     0  01:50           0        9.91       0.857
  J16                  JUNCTION     4.640    4.640     0  01:50        5.02        5.02      -0.155
  CSO10                JUNCTION     1.472    1.472     0  01:50        1.72        1.72      -0.003
  J12                  JUNCTION     0.000    5.083     0  01:40           0        8.42       9.699
  J4                   JUNCTION     0.000    0.085     0  01:39           0       0.579       0.549
  J6                   JUNCTION     0.000    0.028     0  02:30           0       0.498       0.774
  J2                   JUNCTION     0.000    0.039     0  01:51           0       0.881       0.570
  J19                  JUNCTION     0.000    0.271     0  01:51           0        5.74       0.189
  J9                   JUNCTION     0.000    0.075     0  02:00           0        1.39       1.504
  J14                  JUNCTION     0.000    0.124     0  02:00           0        2.18       0.345
  J17                  JUNCTION     0.000    0.033     0  02:00           0       0.588       1.139
  J7                   JUNCTION     0.000    0.127     0  02:15           0       0.694       0.444
  J11                  JUNCTION     0.000    0.487     0  02:07           0        2.21       0.378
  J18                  JUNCTION     0.000    0.202     0  02:10           0       0.796       0.097
  Out_to_WWTP          OUTFALL      0.000    0.271     0  01:53           0        5.73       0.000
  T5                   STORAGE      0.000    2.030     0  01:50           0        2.67      15.024
  T4                   STORAGE      0.000    0.591     0  01:45           0        1.48      29.456
  T6                   STORAGE      0.000    6.150     0  01:50           0        10.3       6.655
  T3                   STORAGE      0.000    4.880     0  01:41           0        7.67      21.252
  T2                   STORAGE      0.000    2.548     0  01:45           0        3.09      41.391
  T1                   STORAGE      0.000    4.085     0  01:49           0        9.83       5.355
  
  
  **********************
  Node Surcharge Summary
  **********************
  
  Surcharging occurs when water rises above the top of the highest conduit.
  ---------------------------------------------------------------------
                                               Max. Height   Min. Depth
                                   Hours       Above Crown    Below Rim
  Node                 Type      Surcharged         Meters       Meters
  ---------------------------------------------------------------------
  CSO7                 JUNCTION        0.77          0.945        0.000
  CSO9                 JUNCTION        0.83          1.682        0.000
  J8                   JUNCTION        0.07          1.140        0.360
  CSO8                 JUNCTION        0.82          1.547        0.000
  CSO10                JUNCTION        0.54          0.560        0.000
  J4                   JUNCTION        0.71          0.455        1.245
  
  
  *********************
  Node Flooding Summary
  *********************
  
  Flooding refers to all water that overflows a node, whether it ponds or not.
  --------------------------------------------------------------------------
                                                             Total   Maximum
                                 Maximum   Time of Max       Flood    Ponded
                        Hours       Rate    Occurrence      Volume     Depth
  Node                 Flooded       CMS   days hr:min    10^6 ltr    Meters
  --------------------------------------------------------------------------
  CSO7                    0.65     0.291      0  01:45       0.249     0.000
  CSO9                    0.67     1.438      0  01:45       1.345     0.000
  CSO8                    0.67     5.693      0  01:40       4.702     0.000
  CSO10                   0.49     1.262      0  01:50       0.924     0.000
  T5                      1.41     1.888      0  01:51       1.058     0.000
  T4                      1.87     0.105      0  02:29       0.180     0.000
  T6                      3.51     6.095      0  01:50       7.707     0.000
  T3                      1.40     1.742      0  01:58       1.407     0.000
  T2                      1.71     0.711      0  01:56       0.643     0.000
  T1                      1.17     3.416      0  01:51       3.116     0.000
  
  
  **********************
  Storage Volume Summary
  **********************
  
  ------------------------------------------------------------------------------------------------
                         Average    Avg   Evap  Exfil     Maximum    Max    Time of Max    Maximum
                          Volume   Pcnt   Pcnt   Pcnt      Volume   Pcnt     Occurrence    Outflow
  Storage Unit           1000 m³   Full   Loss   Loss     1000 m³   Full    days hr:min        CMS
  ------------------------------------------------------------------------------------------------
  T5                       0.361   72.2    0.0    0.0       0.500  100.0       0  01:51      0.039
  T4                       0.362   72.3    0.0    0.0       0.500  100.0       0  02:29      0.028
  T6                       0.466   77.7    0.0    0.0       0.600  100.0       0  01:45      0.075
  T3                       2.029   78.0    0.0    0.0       2.600  100.0       0  01:58      1.062
  T2                       0.765   76.5    0.0    0.0       1.000  100.0       0  01:56      0.033
  T1                       0.475   67.8    0.0    0.0       0.700  100.0       0  01:51      0.271
  
  
  ***********************
  Outfall Loading Summary
  ***********************
  
  -----------------------------------------------------------
                         Flow       Avg       Max       Total
                         Freq      Flow      Flow      Volume
  Outfall Node           Pcnt       CMS       CMS    10^6 ltr
  -----------------------------------------------------------
  Out_to_WWTP           99.02     0.202     0.271       5.733
  -----------------------------------------------------------
  System                99.02     0.202     0.271       5.733
  
  
  ********************
  Link Flow Summary
  ********************
  
  -----------------------------------------------------------------------------
                                 Maximum  Time of Max   Maximum    Max/    Max/
                                  |Flow|   Occurrence   |Veloc|    Full    Full
  Link                 Type          CMS  days hr:min     m/sec    Flow   Depth
  -----------------------------------------------------------------------------
  C1                   CONDUIT     0.039     0  02:40      1.10    0.01    0.11
  C6                   CONDUIT     0.076     0  01:45      1.29    1.21    0.93
  C2                   CONDUIT     0.028     0  03:25      1.00    0.03    0.18
  C9                   CONDUIT     0.127     0  02:16      1.13    0.43    0.73
  C16                  CONDUIT     0.486     0  01:58      1.86    0.05    0.24
  C3                   CONDUIT     0.125     0  04:13      1.90    0.05    0.14
  C19                  CONDUIT     0.033     0  02:25      0.66    0.01    0.46
  C11                  CONDUIT     0.190     0  03:40      1.80    0.01    0.24
  C20                  CONDUIT     4.593     0  01:50      6.04    0.14    0.33
  C22                  CONDUIT     0.202     0  02:10      1.55    0.09    0.60
  C12                  CONDUIT     0.075     0  02:25      0.64    0.01    0.30
  C17                  CONDUIT     5.070     0  01:40      5.14    0.25    0.35
  C10                  CONDUIT     6.150     0  01:50      3.48    0.63    1.00
  C13                  CONDUIT     4.880     0  01:41      3.50    0.29    0.77
  C18                  CONDUIT     2.548     0  01:45      3.36    0.09    0.60
  C23                  CONDUIT     4.085     0  01:49      2.92    0.45    0.79
  C4                   CONDUIT     2.030     0  01:50      3.08    0.49    0.79
  C7                   CONDUIT     0.591     0  01:45      1.44    0.15    0.63
  C14                  CONDUIT     0.271     0  01:53      2.08    0.02    0.09
  C5                   CONDUIT     0.085     0  01:39      1.74    1.45    1.00
  C8                   CONDUIT     0.127     0  02:15      1.97    1.60    0.86
  C15                  CONDUIT     0.487     0  02:07      3.90    1.55    0.83
  C21                  CONDUIT     0.202     0  02:10      1.91    1.16    0.69
  V4                   ORIFICE     0.028     0  02:30                      0.35
  V5                   ORIFICE     0.039     0  01:51                      1.00
  V1                   ORIFICE     0.271     0  01:51                      1.00
  V6                   ORIFICE     0.075     0  02:00                      0.43
  V3                   ORIFICE     0.124     0  02:00                      0.65
  V2                   ORIFICE     0.033     0  02:00                      0.24
  
  
  ***************************
  Flow Classification Summary
  ***************************
  
  -------------------------------------------------------------------------------------
                      Adjusted    ---------- Fraction of Time in Flow Class ---------- 
                       /Actual         Up    Down  Sub   Sup   Up    Down  Norm  Inlet 
  Conduit               Length    Dry  Dry   Dry   Crit  Crit  Crit  Crit  Ltd   Ctrl  
  -------------------------------------------------------------------------------------
  C1                      1.00   0.00  0.00  0.00  0.12  0.88  0.00  0.00  0.94  0.00
  C6                      1.00   0.00  0.00  0.00  0.12  0.88  0.00  0.00  0.00  0.00
  C2                      1.00   0.00  0.00  0.00  0.63  0.37  0.00  0.00  0.98  0.00
  C9                      1.00   0.00  0.00  0.00  1.00  0.00  0.00  0.00  1.00  0.00
  C16                     1.00   0.00  0.00  0.00  0.71  0.29  0.00  0.00  0.61  0.00
  C3                      1.00   0.00  0.01  0.00  0.05  0.94  0.00  0.00  0.43  0.00
  C19                     1.00   0.00  0.00  0.00  1.00  0.00  0.00  0.00  1.00  0.00
  C11                     1.00   0.00  0.00  0.00  0.19  0.81  0.00  0.00  1.00  0.00
  C20                     1.00   0.00  0.00  0.00  0.63  0.37  0.00  0.00  0.97  0.00
  C22                     1.00   0.00  0.00  0.00  0.91  0.09  0.00  0.00  1.00  0.00
  C12                     1.00   0.00  0.00  0.00  1.00  0.00  0.00  0.00  1.00  0.00
  C17                     1.00   0.00  0.00  0.00  0.76  0.24  0.00  0.00  0.94  0.00
  C10                     1.00   0.00  0.00  0.00  0.96  0.04  0.00  0.00  0.94  0.00
  C13                     1.00   0.00  0.00  0.00  0.85  0.15  0.00  0.00  0.12  0.00
  C18                     1.00   0.00  0.00  0.00  0.93  0.07  0.00  0.00  0.97  0.00
  C23                     1.00   0.00  0.00  0.00  0.86  0.14  0.00  0.00  0.92  0.00
  C4                      1.00   0.00  0.00  0.00  0.94  0.06  0.00  0.00  0.97  0.00
  C7                      1.00   0.00  0.00  0.00  0.94  0.06  0.00  0.00  0.97  0.00
  C14                     1.00   0.00  0.01  0.00  0.01  0.98  0.00  0.00  0.32  0.00
  C5                      1.00   0.00  0.00  0.00  0.95  0.05  0.00  0.00  0.87  0.00
  C8                      1.00   0.00  0.00  0.00  0.11  0.89  0.00  0.00  0.00  0.00
  C15                     1.00   0.00  0.00  0.00  0.00  1.00  0.00  0.00  0.00  0.00
  C21                     1.00   0.00  0.00  0.00  0.01  0.99  0.00  0.00  0.00  0.00
  
  
  *************************
  Conduit Surcharge Summary
  *************************
  
  ----------------------------------------------------------------------------
                                                           Hours        Hours 
                         --------- Hours Full --------   Above Full   Capacity
  Conduit                Both Ends  Upstream  Dnstream   Normal Flow   Limited
  ----------------------------------------------------------------------------
  C6                          0.01      0.71      0.01      0.65         0.01
  C9                          0.01      0.01      0.36      0.01         0.01
  C22                         0.01      0.01      0.08      0.01         0.01
  C10                         0.07      0.07      6.24      0.01         0.01
  C13                         0.01      0.01      6.25      0.01         0.01
  C18                         0.01      0.01      6.18      0.01         0.01
  C23                         0.01      0.01      6.14      0.01         0.01
  C4                          0.01      0.01      6.18      0.01         0.01
  C7                          0.01      0.01      6.18      0.01         0.01
  C5                          0.71      0.77      0.82      0.77         0.69
  C8                          0.01      0.82      0.01      0.84         0.01
  C15                         0.01      0.82      0.01      0.83         0.01
  C21                         0.01      0.54      0.01      0.52         0.01
  

  Analysis begun on:  Sun Oct 20 16:52:26 2024
  Analysis ended on:  Sun Oct 20 16:52:26 2024
  Total elapsed time: < 1 sec