
  EPA STORM WATER MANAGEMENT MODEL - VERSION 5.2 (Build 5.2.4)
  PYSWMM TOOLKIT API - VERSION v1.0 (2023-11-27)
  ------------------------------------------------------------

  
  ****************
  Analysis Options
  ****************
  Flow Units ............... CMS
  Process Models:
    Rainfall/Runoff ........ YES
    RDII ................... NO
    Snowmelt ............... NO
    Groundwater ............ NO
    Flow Routing ........... YES
    Ponding Allowed ........ YES
    Water Quality .......... NO
  Infiltration Method ...... HORTON
  Flow Routing Method ...... DYNWAVE
  Surcharge Method ......... EXTRAN
  Starting Date ............ 01/01/2000 08:00:00
  Ending Date .............. 01/01/2000 16:00:00
  Antecedent Dry Days ...... 0.0
  Report Time Step ......... 00:05:00
  Wet Time Step ............ 00:05:00
  Dry Time Step ............ 00:05:00
  Routing Time Step ........ 30.00 sec
  Variable Time Step ....... YES
  Maximum Trials ........... 8
  Number of Threads ........ 1
  Head Tolerance ........... 0.001500 m
  
  
  **************************        Volume         Depth
  Runoff Quantity Continuity     hectare-m            mm
  **************************     ---------       -------
  Total Precipitation ......         3.250        18.037
  Evaporation Loss .........         0.000         0.000
  Infiltration Loss ........         0.000         0.000
  Surface Runoff ...........         3.240        17.978
  Final Storage ............         0.024         0.132
  Continuity Error (%) .....        -0.405
  
  
  **************************        Volume        Volume
  Flow Routing Continuity        hectare-m      10^6 ltr
  **************************     ---------     ---------
  Dry Weather Inflow .......         0.399         3.989
  Wet Weather Inflow .......         3.239        32.390
  Groundwater Inflow .......         0.000         0.000
  RDII Inflow ..............         0.000         0.000
  External Inflow ..........         0.000         0.000
  External Outflow .........         0.604         6.036
  Flooding Loss ............         1.966        19.660
  Evaporation Loss .........         0.000         0.000
  Exfiltration Loss ........         0.000         0.000
  Initial Stored Volume ....         0.000         0.000
  Final Stored Volume ......         0.810         8.105
  Continuity Error (%) .....         7.085
  
  
  *************************
  Highest Continuity Errors
  *************************
  Node T2 (22.27%)
  Node T4 (17.13%)
  Node T3 (15.01%)
  Node T5 (12.53%)
  Node T6 (10.37%)
  
  
  ***************************
  Time-Step Critical Elements
  ***************************
  Link C15 (50.93%)
  Link C21 (1.16%)
  
  
  ********************************
  Highest Flow Instability Indexes
  ********************************
  Link C13 (8)
  Link C11 (5)
  Link C3 (5)
  Link V3 (5)
  Link C2 (4)
  
  
  *********************************
  Most Frequent Nonconverging Nodes
  *********************************
  Node Out_to_WWTP (2.80%)
  Node CSO7 (1.55%)
  Node J4 (1.40%)
  Node CSO9 (0.62%)
  Node CSO8 (0.31%)
  
  
  *************************
  Routing Time Step Summary
  *************************
  Minimum Time Step           :     1.25 sec
  Average Time Step           :    22.13 sec
  Maximum Time Step           :    30.00 sec
  % of Time in Steady State   :     0.00
  Average Iterations per Step :     2.62
  % of Steps Not Converging   :     2.80
  Time Step Frequencies       :
     30.000 - 13.228 sec      :    63.17 %
     13.228 -  5.833 sec      :    36.36 %
      5.833 -  2.572 sec      :     0.31 %
      2.572 -  1.134 sec      :     0.16 %
      1.134 -  0.500 sec      :     0.00 %
  
  
  ***************************
  Subcatchment Runoff Summary
  ***************************
  
  ------------------------------------------------------------------------------------------------------------------------------
                            Total      Total      Total      Total     Imperv       Perv      Total       Total     Peak  Runoff
                           Precip      Runon       Evap      Infil     Runoff     Runoff     Runoff      Runoff   Runoff   Coeff
  Subcatchment                 mm         mm         mm         mm         mm         mm         mm    10^6 ltr      CMS
  ------------------------------------------------------------------------------------------------------------------------------
  SC01                      16.83       0.00       0.00       0.00      16.85       0.00      16.85        5.56     2.26   1.001
  SC02                      15.57       0.00       0.00       0.00      15.60       0.00      15.60        3.55     1.86   1.002
  SC03                      21.90       0.00       0.00       0.00      21.92       0.00      21.92        3.94     1.03   1.001
  SC04                      15.57       0.00       0.00       0.00      15.43       0.00      15.43        1.06     0.39   0.991
  SC05                      16.83       0.00       0.00       0.00      16.83       0.00      16.83        2.63     1.03   1.000
  SC06                      17.53       0.00       0.00       0.00      17.30       0.00      17.30        5.63     1.12   0.987
  SC07                      15.57       0.00       0.00       0.00      15.43       0.00      15.43        0.73     0.27   0.991
  SC08                      21.90       0.00       0.00       0.00      21.84       0.00      21.84        6.11     1.43   0.997
  SC09                      17.53       0.00       0.00       0.00      17.42       0.00      17.42        1.20     0.26   0.994
  SC010                     16.83       0.00       0.00       0.00      16.79       0.00      16.79        1.97     0.71   0.998
  
  
  ******************
  Node Depth Summary
  ******************
  
  ---------------------------------------------------------------------------------
                                 Average  Maximum  Maximum  Time of Max    Reported
                                   Depth    Depth      HGL   Occurrence   Max Depth
  Node                 Type       Meters   Meters   Meters  days hr:min      Meters
  ---------------------------------------------------------------------------------
  J1                   JUNCTION     0.12     0.34    34.34     0  02:40        0.33
  J3                   JUNCTION     0.10     0.14    18.14     0  04:35        0.14
  CSO7                 JUNCTION     0.37     1.20    35.20     0  02:09        1.20
  J5                   JUNCTION     0.09     0.23    32.23     0  02:36        0.22
  CSO9                 JUNCTION     0.71     2.00    42.00     0  01:44        2.00
  J8                   JUNCTION     0.17     0.37    36.37     0  02:30        0.37
  CSO8                 JUNCTION     0.86     2.00    34.00     0  01:19        2.00
  J10                  JUNCTION     0.17     0.37    29.37     0  02:26        0.36
  J13                  JUNCTION     0.10     0.36    29.36     0  02:35        0.35
  J15                  JUNCTION     0.23     0.52    15.52     0  02:42        0.51
  J16                  JUNCTION     0.11     0.36    30.36     0  02:40        0.35
  CSO10                JUNCTION     0.33     1.00    31.00     0  02:12        1.00
  J12                  JUNCTION     0.69     1.14    27.14     0  02:41        1.11
  J4                   JUNCTION     0.26     0.96    33.96     0  02:09        0.75
  J6                   JUNCTION     0.05     0.07    25.07     0  04:05        0.07
  J2                   JUNCTION     0.07     0.08    25.08     0  04:00        0.08
  J19                  JUNCTION     0.15     0.17     8.17     0  02:11        0.17
  J9                   JUNCTION     0.08     0.11    29.11     0  05:30        0.11
  J14                  JUNCTION     0.11     0.15    20.15     0  03:42        0.15
  J17                  JUNCTION     0.05     0.08    20.08     0  04:10        0.08
  J7                   JUNCTION     0.12     0.23    39.23     0  03:05        0.23
  J11                  JUNCTION     0.17     0.30    31.30     0  02:00        0.30
  J18                  JUNCTION     0.09     0.16    29.16     0  03:03        0.16
  Out_to_WWTP          OUTFALL      0.15     0.17     6.17     0  04:07        0.17
  T5                   STORAGE      3.68     5.00    32.00     0  02:26        5.00
  T4                   STORAGE      3.32     5.00    32.00     0  02:45        5.00
  T6                   STORAGE      3.76     5.00    36.00     0  02:10        5.00
  T3                   STORAGE      3.65     5.00    27.00     0  02:36        5.00
  T2                   STORAGE      3.42     5.00    26.00     0  02:38        5.00
  T1                   STORAGE      3.73     5.00    15.00     0  02:10        5.00
  
  
  *******************
  Node Inflow Summary
  *******************
  
  -------------------------------------------------------------------------------------------------
                                  Maximum  Maximum                  Lateral       Total        Flow
                                  Lateral    Total  Time of Max      Inflow      Inflow     Balance
                                   Inflow   Inflow   Occurrence      Volume      Volume       Error
  Node                 Type           CMS      CMS  days hr:min    10^6 ltr    10^6 ltr     Percent
  -------------------------------------------------------------------------------------------------
  J1                   JUNCTION     1.052    1.052     0  02:40        3.19        3.19      -0.013
  J3                   JUNCTION     0.000    0.192     0  03:58           0        3.47       1.067
  CSO7                 JUNCTION     0.282    0.282     0  02:35        1.03        1.03       0.055
  J5                   JUNCTION     0.398    0.473     0  02:35        1.19        1.94       0.092
  CSO9                 JUNCTION     0.265    0.265     0  02:30         1.4         1.4       0.041
  J8                   JUNCTION     1.151    1.278     0  02:30        6.58         7.6       0.069
  CSO8                 JUNCTION     1.442    1.442     0  02:40        6.41        6.41       0.011
  J10                  JUNCTION     1.044    1.530     0  02:25        4.33        8.38      -0.062
  J13                  JUNCTION     1.874    1.874     0  02:35        4.02        4.02      -0.071
  J15                  JUNCTION     0.000    2.625     0  02:40           0        11.6       0.654
  J16                  JUNCTION     2.277    2.277     0  02:40        6.11        6.11      -0.046
  CSO10                JUNCTION     0.716    0.716     0  02:40        2.11        2.11       0.023
  J12                  JUNCTION     0.000    1.526     0  02:26           0        9.75       7.693
  J4                   JUNCTION     0.000    0.075     0  02:08           0       0.751       0.484
  J6                   JUNCTION     0.000    0.028     0  03:00           0       0.495       0.756
  J2                   JUNCTION     0.000    0.039     0  02:27           0       0.898       0.564
  J19                  JUNCTION     0.000    0.271     0  02:10           0        6.05       0.183
  J9                   JUNCTION     0.000    0.075     0  02:30           0        1.23       1.513
  J14                  JUNCTION     0.000    0.124     0  03:58           0        2.09       0.354
  J17                  JUNCTION     0.000    0.033     0  03:05           0       0.529       1.187
  J7                   JUNCTION     0.000    0.127     0  03:03           0        1.02       0.299
  J11                  JUNCTION     0.000    0.486     0  02:00           0        4.06       0.185
  J18                  JUNCTION     0.000    0.202     0  02:49           0        1.55       0.043
  Out_to_WWTP          OUTFALL      0.000    0.271     0  02:12           0        6.04       0.000
  T5                   STORAGE      0.000    1.040     0  02:40           0        3.19      14.320
  T4                   STORAGE      0.000    0.467     0  02:36           0        1.94      20.670
  T6                   STORAGE      0.000    1.273     0  02:30           0         7.6      11.572
  T3                   STORAGE      0.000    2.304     0  02:44           0        9.06      17.655
  T2                   STORAGE      0.000    1.845     0  02:35           0        4.02      28.646
  T1                   STORAGE      0.000    2.363     0  02:43           0        11.5       5.423
  
  
  **********************
  Node Surcharge Summary
  **********************
  
  Surcharging occurs when water rises above the top of the highest conduit.
  ---------------------------------------------------------------------
                                               Max. Height   Min. Depth
                                   Hours       Above Crown    Below Rim
  Node                 Type      Surcharged         Meters       Meters
  ---------------------------------------------------------------------
  CSO7                 JUNCTION        1.25          0.945        0.000
  CSO9                 JUNCTION        1.61          1.682        0.000
  CSO8                 JUNCTION        1.93          1.547        0.000
  CSO10                JUNCTION        1.00          0.560        0.000
  J4                   JUNCTION        1.22          0.656        1.044
  
  
  *********************
  Node Flooding Summary
  *********************
  
  Flooding refers to all water that overflows a node, whether it ponds or not.
  --------------------------------------------------------------------------
                                                             Total   Maximum
                                 Maximum   Time of Max       Flood    Ponded
                        Hours       Rate    Occurrence      Volume     Depth
  Node                 Flooded       CMS   days hr:min    10^6 ltr    Meters
  --------------------------------------------------------------------------
  CSO7                    1.09     0.207      0  02:35       0.275     0.000
  CSO9                    1.38     0.138      0  02:30       0.376     0.000
  CSO8                    1.67     0.955      0  02:40       2.353     0.000
  CSO10                   0.93     0.511      0  02:40       0.560     0.000
  T5                      1.67     0.998      0  02:40       1.492     0.000
  T4                      2.33     0.349      0  02:45       0.649     0.000
  T6                      3.71     1.237      0  02:30       5.015     0.000
  T3                      1.91     2.242      0  02:44       2.881     0.000
  T2                      2.04     1.626      0  02:38       1.639     0.000
  T1                      1.68     2.092      0  02:43       4.409     0.000
  
  
  **********************
  Storage Volume Summary
  **********************
  
  ------------------------------------------------------------------------------------------------
                         Average    Avg   Evap  Exfil     Maximum    Max    Time of Max    Maximum
                          Volume   Pcnt   Pcnt   Pcnt      Volume   Pcnt     Occurrence    Outflow
  Storage Unit           1000 m³   Full   Loss   Loss     1000 m³   Full    days hr:min        CMS
  ------------------------------------------------------------------------------------------------
  T5                       0.368   73.5    0.0    0.0       0.500  100.0       0  02:26      0.039
  T4                       0.332   66.3    0.0    0.0       0.500  100.0       0  02:45      0.028
  T6                       0.452   75.3    0.0    0.0       0.600  100.0       0  02:10      0.075
  T3                       1.899   73.0    0.0    0.0       2.600  100.0       0  02:36      0.272
  T2                       0.683   68.3    0.0    0.0       1.000  100.0       0  02:38      0.033
  T1                       0.522   74.6    0.0    0.0       0.700  100.0       0  02:10      0.271
  
  
  ***********************
  Outfall Loading Summary
  ***********************
  
  -----------------------------------------------------------
                         Flow       Avg       Max       Total
                         Freq      Flow      Flow      Volume
  Outfall Node           Pcnt       CMS       CMS    10^6 ltr
  -----------------------------------------------------------
  Out_to_WWTP           99.15     0.220     0.271       6.036
  -----------------------------------------------------------
  System                99.15     0.220     0.271       6.036
  
  
  ********************
  Link Flow Summary
  ********************
  
  -----------------------------------------------------------------------------
                                 Maximum  Time of Max   Maximum    Max/    Max/
                                  |Flow|   Occurrence   |Veloc|    Full    Full
  Link                 Type          CMS  days hr:min     m/sec    Flow   Depth
  -----------------------------------------------------------------------------
  C1                   CONDUIT     0.039     0  03:12      1.07    0.01    0.11
  C6                   CONDUIT     0.075     0  02:35      1.29    1.19    0.88
  C2                   CONDUIT     0.028     0  04:05      1.00    0.03    0.18
  C9                   CONDUIT     0.127     0  03:03      1.30    0.43    0.60
  C16                  CONDUIT     0.489     0  02:03      1.82    0.05    0.17
  C3                   CONDUIT     0.125     0  04:53      1.89    0.05    0.14
  C19                  CONDUIT     0.033     0  04:10      0.69    0.01    0.29
  C11                  CONDUIT     0.191     0  04:35      1.83    0.01    0.16
  C20                  CONDUIT     2.242     0  02:40      4.59    0.07    0.22
  C22                  CONDUIT     0.202     0  02:47      1.58    0.09    0.43
  C12                  CONDUIT     0.075     0  05:30      0.60    0.01    0.31
  C17                  CONDUIT     1.494     0  02:26      3.60    0.07    0.38
  C10                  CONDUIT     1.273     0  02:30      1.66    0.13    0.62
  C13                  CONDUIT     2.304     0  02:44      2.51    0.14    0.78
  C18                  CONDUIT     1.845     0  02:35      3.36    0.07    0.59
  C23                  CONDUIT     2.363     0  02:43      2.00    0.26    0.67
  C4                   CONDUIT     1.040     0  02:40      3.06    0.25    0.67
  C7                   CONDUIT     0.467     0  02:36      1.44    0.11    0.61
  C14                  CONDUIT     0.271     0  02:12      2.08    0.02    0.09
  C5                   CONDUIT     0.075     0  02:08      1.47    1.28    1.00
  C8                   CONDUIT     0.127     0  03:03      1.77    1.60    0.86
  C15                  CONDUIT     0.486     0  02:00      3.56    1.55    0.83
  C21                  CONDUIT     0.202     0  02:49      1.83    1.16    0.69
  V4                   ORIFICE     0.028     0  03:00                      0.35
  V5                   ORIFICE     0.039     0  02:27                      1.00
  V1                   ORIFICE     0.271     0  02:10                      1.00
  V6                   ORIFICE     0.075     0  02:30                      0.43
  V3                   ORIFICE     0.124     0  03:58                      0.65
  V2                   ORIFICE     0.033     0  03:05                      0.24
  
  
  ***************************
  Flow Classification Summary
  ***************************
  
  -------------------------------------------------------------------------------------
                      Adjusted    ---------- Fraction of Time in Flow Class ---------- 
                       /Actual         Up    Down  Sub   Sup   Up    Down  Norm  Inlet 
  Conduit               Length    Dry  Dry   Dry   Crit  Crit  Crit  Crit  Ltd   Ctrl  
  -------------------------------------------------------------------------------------
  C1                      1.00   0.00  0.00  0.00  0.07  0.93  0.00  0.00  0.94  0.00
  C6                      1.00   0.00  0.00  0.00  0.18  0.82  0.00  0.00  0.00  0.00
  C2                      1.00   0.00  0.00  0.00  0.63  0.37  0.00  0.00  0.99  0.00
  C9                      1.00   0.00  0.00  0.00  1.00  0.00  0.00  0.00  1.00  0.00
  C16                     1.00   0.00  0.00  0.00  0.58  0.42  0.00  0.00  0.48  0.00
  C3                      1.00   0.00  0.01  0.00  0.05  0.95  0.00  0.00  0.50  0.00
  C19                     1.00   0.00  0.00  0.00  1.00  0.00  0.00  0.00  1.00  0.00
  C11                     1.00   0.00  0.00  0.00  0.37  0.63  0.00  0.00  1.00  0.00
  C20                     1.00   0.00  0.00  0.00  0.53  0.47  0.00  0.00  0.97  0.00
  C22                     1.00   0.00  0.00  0.00  0.75  0.25  0.00  0.00  1.00  0.00
  C12                     1.00   0.00  0.00  0.00  1.00  0.00  0.00  0.00  1.00  0.00
  C17                     1.00   0.00  0.00  0.00  0.68  0.32  0.00  0.00  0.94  0.00
  C10                     1.00   0.00  0.00  0.00  0.96  0.04  0.00  0.00  0.98  0.00
  C13                     1.00   0.00  0.00  0.00  0.85  0.15  0.00  0.00  0.20  0.00
  C18                     1.00   0.00  0.00  0.00  0.94  0.06  0.00  0.00  0.97  0.00
  C23                     1.00   0.00  0.00  0.00  0.86  0.14  0.00  0.00  0.95  0.00
  C4                      1.00   0.00  0.00  0.00  0.96  0.04  0.00  0.00  0.98  0.00
  C7                      1.00   0.00  0.00  0.00  0.95  0.05  0.00  0.00  0.97  0.00
  C14                     1.00   0.00  0.01  0.00  0.01  0.98  0.00  0.00  0.25  0.00
  C5                      1.00   0.00  0.00  0.00  0.93  0.07  0.00  0.00  0.82  0.00
  C8                      1.00   0.00  0.00  0.00  0.21  0.79  0.00  0.00  0.00  0.00
  C15                     1.00   0.00  0.00  0.00  0.00  1.00  0.00  0.00  0.00  0.00
  C21                     1.00   0.00  0.00  0.00  0.00  1.00  0.00  0.00  0.00  0.00
  
  
  *************************
  Conduit Surcharge Summary
  *************************
  
  ----------------------------------------------------------------------------
                                                           Hours        Hours 
                         --------- Hours Full --------   Above Full   Capacity
  Conduit                Both Ends  Upstream  Dnstream   Normal Flow   Limited
  ----------------------------------------------------------------------------
  C6                          0.01      1.22      0.01      1.13         0.01
  C10                         0.01      0.01      6.11      0.01         0.01
  C13                         0.01      0.01      6.09      0.01         0.01
  C18                         0.01      0.01      5.72      0.01         0.01
  C23                         0.01      0.01      6.50      0.01         0.01
  C4                          0.01      0.01      6.58      0.01         0.01
  C7                          0.01      0.01      6.05      0.01         0.01
  C5                          1.23      1.25      1.33      1.30         1.21
  C8                          0.01      1.61      0.01      1.63         0.01
  C15                         0.01      1.93      0.01      1.95         0.01
  C21                         0.01      1.00      0.01      1.01         0.01
  

  Analysis begun on:  Sun Oct 20 17:12:22 2024
  Analysis ended on:  Sun Oct 20 17:12:22 2024
  Total elapsed time: < 1 sec