
  EPA STORM WATER MANAGEMENT MODEL - VERSION 5.2 (Build 5.2.4)
  PYSWMM TOOLKIT API - VERSION v1.0 (2023-11-27)
  ------------------------------------------------------------

  WARNING 04: minimum elevation drop used for Conduit WS02004404WS02004405
  WARNING 03: negative offset ignored for Link YS02001904YS02001907
  
  ****************
  Analysis Options
  ****************
  Flow Units ............... LPS
  Process Models:
    Rainfall/Runoff ........ YES
    RDII ................... NO
    Snowmelt ............... NO
    Groundwater ............ NO
    Flow Routing ........... YES
    Ponding Allowed ........ NO
    Water Quality .......... NO
  Infiltration Method ...... HORTON
  Flow Routing Method ...... DYNWAVE
  Surcharge Method ......... EXTRAN
  Starting Date ............ 08/28/2015 08:00:00
  Ending Date .............. 08/28/2015 16:00:00
  Antecedent Dry Days ...... 8.0
  Report Time Step ......... 00:01:00
  Wet Time Step ............ 00:01:00
  Dry Time Step ............ 00:01:00
  Routing Time Step ........ 30.00 sec
  Variable Time Step ....... YES
  Maximum Trials ........... 8
  Number of Threads ........ 4
  Head Tolerance ........... 0.001500 m
  
  
  **************************        Volume         Depth
  Runoff Quantity Continuity     hectare-m            mm
  **************************     ---------       -------
  Total Precipitation ......         2.896        87.318
  Evaporation Loss .........         0.000         0.000
  Infiltration Loss ........         0.102         3.069
  Surface Runoff ...........         2.762        83.275
  Final Storage ............         0.033         0.995
  Continuity Error (%) .....        -0.025
  
  
  **************************        Volume        Volume
  Flow Routing Continuity        hectare-m      10^6 ltr
  **************************     ---------     ---------
  Dry Weather Inflow .......         0.025         0.251
  Wet Weather Inflow .......         2.762        27.621
  Groundwater Inflow .......         0.000         0.000
  RDII Inflow ..............         0.000         0.000
  External Inflow ..........         0.083         0.834
  External Outflow .........         1.791        17.908
  Flooding Loss ............         1.048        10.484
  Evaporation Loss .........         0.000         0.000
  Exfiltration Loss ........         0.000         0.000
  Initial Stored Volume ....         0.243         2.431
  Final Stored Volume ......         0.279         2.787
  Continuity Error (%) .....        -0.138
  
  
  *************************
  Highest Continuity Errors
  *************************
  Node YS02001583 (-13.54%)
  Node YS02001884 (5.21%)
  
  
  ***************************
  Time-Step Critical Elements
  ***************************
  Link WS02006252WS02006251 (43.84%)
  Link WS02004404WS02004405 (11.65%)
  Link WS02006235WS02006234 (9.92%)
  Link WS02006238WS02006235 (9.19%)
  Link YS02001791YS02001793 (8.69%)
  
  
  ********************************
  Highest Flow Instability Indexes
  ********************************
  Link WS02006113WS02006111 (46)
  Link WS02006111WS02006112 (29)
  Link WS02006238WS02006235 (17)
  Link WS02006252WS02006251 (17)
  Link WS02006256WS02006235 (15)
  
  
  *********************************
  Most Frequent Nonconverging Nodes
  *********************************
  Node CC-1 (11.30%)
  Node CC-2 (11.30%)
  Node JK-1 (11.30%)
  Node JK-2 (11.30%)
  Node WSC (11.30%)
  
  
  *************************
  Routing Time Step Summary
  *************************
  Minimum Time Step           :     0.00 sec
  Average Time Step           :     2.03 sec
  Maximum Time Step           :     6.43 sec
  % of Time in Steady State   :     0.00
  Average Iterations per Step :     3.04
  % of Steps Not Converging   :    11.30
  Time Step Frequencies       :
     30.000 - 13.228 sec      :     0.00 %
     13.228 -  5.833 sec      :     7.72 %
      5.833 -  2.572 sec      :    21.18 %
      2.572 -  1.134 sec      :    22.07 %
      1.134 -  0.500 sec      :    49.03 %
  
  
  ***************************
  Subcatchment Runoff Summary
  ***************************
  
  ------------------------------------------------------------------------------------------------------------------------------
                            Total      Total      Total      Total     Imperv       Perv      Total       Total     Peak  Runoff
                           Precip      Runon       Evap      Infil     Runoff     Runoff     Runoff      Runoff   Runoff   Coeff
  Subcatchment                 mm         mm         mm         mm         mm         mm         mm    10^6 ltr      LPS
  ------------------------------------------------------------------------------------------------------------------------------
  sub60                     87.32       0.00       0.00       1.86      75.65       8.62      84.27        1.11   682.43   0.965
  sub61                     87.32       0.00       0.00       2.69      71.35      12.15      83.51        1.53   943.71   0.956
  sub62                     87.32       0.00       0.00       1.24      79.05       5.75      84.80        2.32  1331.03   0.971
  sub63                     87.32       0.00       0.00       4.94      61.03      20.38      81.42        1.85  1048.13   0.932
  sub64                     87.32       0.00       0.00       2.50      73.02      10.60      83.62        2.01  1081.05   0.958
  sub65                     87.32       0.00       0.00       2.17      74.72       9.19      83.91        2.31  1207.61   0.961
  sub66                     87.32       0.00       0.00       6.06      60.92      19.26      80.19        3.74  1572.04   0.918
  sub67                     87.32       0.00       0.00       1.19      79.10       5.79      84.89        1.58  1032.23   0.972
  sub68                     87.32       0.00       0.00       2.23      73.91      10.00      83.91        2.31  1365.14   0.961
  sub69                     87.32       0.00       0.00       1.99      74.11      11.11      85.22        3.16  1611.79   0.976
  sub70                     87.32       0.00       0.00       6.56      57.47      23.13      80.60        2.33   885.04   0.923
  sub71                     87.32       0.00       0.00       1.27      79.01       5.72      84.73        2.22  1171.90   0.970
  sub72                     87.32       0.00       0.00       1.13      79.81       4.98      84.79        1.17   565.51   0.971
  
  
  ******************
  Node Depth Summary
  ******************
  
  ---------------------------------------------------------------------------------
                                 Average  Maximum  Maximum  Time of Max    Reported
                                   Depth    Depth      HGL   Occurrence   Max Depth
  Node                 Type       Meters   Meters   Meters  days hr:min      Meters
  ---------------------------------------------------------------------------------
  WS02003060           JUNCTION     0.24     0.38     5.32     0  02:29        0.38
  WS02003066           JUNCTION     0.20     0.30     5.85     0  02:29        0.30
  WS02003067           JUNCTION     0.50     0.70     6.02     0  02:29        0.70
  WS02003069           JUNCTION     0.27     0.43     5.01     0  02:30        0.43
  WS02003072           JUNCTION     0.33     0.50     4.87     0  02:30        0.50
  WS02003073           JUNCTION     0.19     0.30     4.36     0  02:31        0.30
  WS02004401           JUNCTION     0.58     0.85     6.85     0  02:30        0.85
  WS02004402           JUNCTION     0.61     0.88     6.84     0  02:30        0.88
  WS02004403           JUNCTION     0.64     0.89     6.82     0  02:30        0.89
  WS02004404           JUNCTION     0.71     0.96     6.81     0  02:30        0.96
  WS02004405           JUNCTION     0.71     0.96     6.81     0  02:30        0.96
  WS02004406           JUNCTION     0.72     0.96     6.79     0  02:30        0.96
  WS02004407           JUNCTION     0.18     0.30     6.61     0  02:31        0.30
  WS02004409           JUNCTION     0.40     0.67     6.44     0  02:31        0.67
  WS02004410           JUNCTION     0.42     0.68     6.40     0  02:31        0.68
  WS02004411           JUNCTION     0.44     0.69     6.37     0  02:28        0.69
  WS02004412           JUNCTION     0.46     0.70     6.34     0  02:28        0.70
  WS02004413           JUNCTION     0.62     0.86     6.33     0  02:28        0.86
  WS02006109           JUNCTION     0.65     1.26     7.88     0  02:46        1.26
  WS02006110           JUNCTION     0.65     1.36     7.95     0  02:46        1.36
  WS02006111           JUNCTION     0.18     0.29     7.00     0  03:03        0.29
  WS02006112           JUNCTION     0.74     1.06     6.94     0  02:27        1.06
  WS02006113           JUNCTION     0.27     0.46     7.35     0  03:01        0.46
  WS02006115           JUNCTION     0.47     0.75     6.89     0  02:29        0.75
  WS02006116           JUNCTION     0.55     0.83     6.87     0  02:29        0.83
  WS02006228           JUNCTION     0.64     1.23     7.88     0  03:01        1.15
  WS02006229           JUNCTION     0.62     1.23     7.92     0  03:01        1.11
  WS02006230           JUNCTION     0.62     1.34     8.08     0  03:01        1.17
  WS02006231           JUNCTION     0.43     1.40     8.52     0  02:09        0.94
  WS02006232           JUNCTION     0.57     2.18     9.22     0  01:37        2.18
  WS02006234           JUNCTION     0.49     1.96     9.12     0  01:37        1.96
  WS02006235           JUNCTION     0.53     2.00     9.16     0  03:01        2.00
  WS02006238           JUNCTION     0.56     2.15     9.29     0  03:01        2.15
  WS02006239           JUNCTION     0.53     2.03     9.24     0  03:01        2.03
  WS02006240           JUNCTION     0.50     2.10     9.39     0  03:01        2.10
  WS02006242           JUNCTION     0.58     1.55     8.82     0  03:01        1.55
  WS02006243           JUNCTION     0.49     1.48     8.90     0  03:01        1.48
  WS02006245           JUNCTION     0.49     1.56     9.04     0  03:01        1.56
  WS02006247           JUNCTION     0.52     1.47     8.97     0  03:01        1.47
  WS02006248           JUNCTION     0.48     1.10     8.69     0  01:37        1.10
  WS02006249           JUNCTION     0.51     1.09     8.69     0  01:36        1.09
  WS02006251           JUNCTION     0.51     1.36     9.03     0  01:36        1.26
  WS02006252           JUNCTION     0.37     1.50     9.74     0  00:00        0.88
  WS02006256           JUNCTION     0.94     2.35     9.28     0  00:00        2.35
  WSF200               JUNCTION     0.17     0.29     5.52     0  02:29        0.29
  YS02001580           JUNCTION     0.11     1.05     9.59     0  01:32        0.98
  YS02001583           JUNCTION     0.15     1.14     9.64     0  01:33        0.83
  YS02001586           JUNCTION     0.22     1.13     9.30     0  01:33        1.13
  YS02001590           JUNCTION     0.32     1.40     9.26     0  01:33        1.40
  YS02001593           JUNCTION     0.25     1.36     9.23     0  01:33        1.29
  YS02001596           JUNCTION     0.34     1.71     9.12     0  01:33        1.66
  YS02001600           JUNCTION     0.41     1.87     9.00     0  01:33        1.87
  YS02001601           JUNCTION     0.59     2.06     8.90     0  01:32        2.06
  YS02001602           JUNCTION     0.50     1.87     8.77     0  01:33        1.87
  YS02001605           JUNCTION     0.47     1.78     8.68     0  01:33        1.78
  YS02001607           JUNCTION     0.46     1.68     8.53     0  02:15        1.68
  YS02001610           JUNCTION     0.51     1.68     8.48     0  01:33        1.68
  YS02001613           JUNCTION     0.47     1.70     8.54     0  01:37        1.70
  YS02001616           JUNCTION     0.40     1.61     8.52     0  01:33        1.61
  YS02001619           JUNCTION     0.38     1.61     8.54     0  01:33        1.61
  YS02001622           JUNCTION     0.36     1.62     8.52     0  01:33        1.59
  YS02001625           JUNCTION     0.63     1.78     8.38     0  01:33        1.78
  YS02001629           JUNCTION     0.49     1.85     8.40     0  01:33        1.85
  YS02001633           JUNCTION     0.57     2.08     8.53     0  01:37        2.08
  YS02001641           JUNCTION     0.55     2.01     8.45     0  01:55        1.95
  YS02001644           JUNCTION     0.54     1.92     8.35     0  01:35        1.92
  YS02001647           JUNCTION     0.34     1.88     8.49     0  01:37        1.88
  YS02001649           JUNCTION     0.39     2.05     8.44     0  01:36        2.05
  YS02001652           JUNCTION     0.28     2.16     8.76     0  01:36        1.81
  YS02001655           JUNCTION     0.23     2.20     9.05     0  01:36        1.63
  YS02001658           JUNCTION     0.16     2.15     9.29     0  01:36        1.39
  YS02001661           JUNCTION     0.17     2.25     9.66     0  01:36        1.29
  YS02001664           JUNCTION     0.06     1.80     9.72     0  01:36        0.85
  YS02001745           JUNCTION     0.08     2.23     9.75     0  01:36        0.83
  YS02001748           JUNCTION     0.15     2.27     9.35     0  01:36        2.27
  YS02001751           JUNCTION     0.20     2.20     9.08     0  01:36        2.09
  YS02001754           JUNCTION     0.26     2.20     8.81     0  01:36        1.95
  YS02001757           JUNCTION     0.42     2.21     8.47     0  01:36        2.19
  YS02001759           JUNCTION     0.36     2.21     8.57     0  01:36        2.21
  YS02001762           JUNCTION     0.35     2.15     8.55     0  01:36        2.15
  YS02001765           JUNCTION     0.33     2.10     8.55     0  01:36        2.08
  YS02001767           JUNCTION     0.33     2.03     8.52     0  01:36        2.00
  YS02001770           JUNCTION     0.34     1.95     8.44     0  01:36        1.95
  YS02001774           JUNCTION     0.40     2.05     8.47     0  01:37        2.05
  YS02001779           JUNCTION     0.24     1.68     8.37     0  01:35        1.68
  YS02001783           JUNCTION     0.25     1.64     7.78     0  01:34        1.25
  YS02001784           JUNCTION     0.26     1.40     7.46     0  01:34        1.13
  YS02001786           JUNCTION     0.22     1.02     7.05     0  01:34        0.88
  YS02001788           JUNCTION     0.16     0.62     6.60     0  01:36        0.62
  YS02001790           JUNCTION     0.19     0.73     6.37     0  01:37        0.72
  YS02001791           JUNCTION     0.12     0.44     5.91     0  01:37        0.43
  YS02001793           JUNCTION     0.06     0.31     5.14     0  01:35        0.30
  YS02001882           JUNCTION     0.32     1.83     8.55     0  01:37        1.83
  YS02001884           JUNCTION     0.41     1.91     8.53     0  01:37        1.91
  YS02001887           JUNCTION     0.49     2.00     8.54     0  01:37        2.00
  YS02001890           JUNCTION     0.52     1.81     8.32     0  01:33        1.81
  YS02001895           JUNCTION     0.29     1.64     8.39     0  01:33        1.57
  YS02001898           JUNCTION     0.30     1.62     8.35     0  01:33        1.57
  YS02001901           JUNCTION     0.41     1.77     8.38     0  01:55        1.77
  YS02001904           JUNCTION     0.39     1.72     8.35     0  01:55        1.72
  YS02001907           JUNCTION     0.71     1.96     8.25     0  01:34        1.96
  YS02001910           JUNCTION     0.51     2.04     8.55     0  01:37        2.04
  YS02001915           JUNCTION     0.33     2.00     8.72     0  01:37        2.00
  YS02001918           JUNCTION     0.19     1.81     8.88     0  01:35        1.81
  YS02001920           JUNCTION     0.27     2.14     9.15     0  01:35        1.80
  YS02001923           JUNCTION     0.15     2.03     9.29     0  01:35        1.45
  YS02001926           JUNCTION     0.18     1.90     9.35     0  01:35        1.31
  YS02001929           JUNCTION     0.10     1.78     9.47     0  01:35        1.07
  YS02006553           JUNCTION     0.71     2.19     8.47     0  01:37        2.19
  YS02006556           JUNCTION     0.68     2.26     8.57     0  01:37        2.26
  YS02006558           JUNCTION     0.73     2.50     8.77     0  01:37        2.50
  YS02006561           JUNCTION     0.16     1.28     7.94     0  01:34        0.93
  YS02163301           JUNCTION     0.51     1.94     8.45     0  01:35        1.94
  YS02163601           JUNCTION     0.60     2.08     8.48     0  01:55        2.04
  YS02164001           JUNCTION     0.54     2.03     8.49     0  01:55        1.95
  CC-1                 OUTFALL      0.00     0.00     0.00     0  00:00        0.00
  CC-2                 OUTFALL      0.00     0.00     0.00     0  00:00        0.00
  JK-1                 OUTFALL      0.00     0.00     0.00     0  00:00        0.00
  JK-2                 OUTFALL      0.00     0.00     0.00     0  00:00        0.00
  WSC                  OUTFALL      0.19     0.30     0.97     0  02:32        0.30
  CC-storage           STORAGE      0.98     1.74     7.24     0  02:22        1.74
  JK-storage           STORAGE      2.89     4.24     5.04     0  02:00        4.16
  
  
  *******************
  Node Inflow Summary
  *******************
  
  -------------------------------------------------------------------------------------------------
                                  Maximum  Maximum                  Lateral       Total        Flow
                                  Lateral    Total  Time of Max      Inflow      Inflow     Balance
                                   Inflow   Inflow   Occurrence      Volume      Volume       Error
  Node                 Type           LPS      LPS  days hr:min    10^6 ltr    10^6 ltr     Percent
  -------------------------------------------------------------------------------------------------
  WS02003060           JUNCTION     16.53   552.99     0  02:29       0.476           6       0.032
  WS02003066           JUNCTION      0.00   536.42     0  02:29           0        5.53       0.023
  WS02003067           JUNCTION      0.00   536.41     0  02:28           0        5.53       0.072
  WS02003069           JUNCTION      0.32   553.29     0  02:29     0.00922        6.01       0.057
  WS02003072           JUNCTION      0.00   553.24     0  02:30           0        6.01       0.106
  WS02003073           JUNCTION      1.82   555.02     0  02:31      0.0524        6.05       0.082
  WS02004401           JUNCTION      0.00   538.58     0  03:02           0        5.63       0.175
  WS02004402           JUNCTION      0.00   537.36     0  02:30           0        5.62       0.179
  WS02004403           JUNCTION      0.00   537.14     0  02:30           0        5.61       0.175
  WS02004404           JUNCTION      0.16   537.13     0  02:30     0.00467        5.61       0.150
  WS02004405           JUNCTION      0.04   537.18     0  02:30      0.0011         5.6       0.215
  WS02004406           JUNCTION      0.00   537.24     0  02:30           0        5.59       0.364
  WS02004407           JUNCTION      0.00   536.94     0  02:31           0        5.57       0.015
  WS02004409           JUNCTION      0.00   536.75     0  02:31           0        5.57       0.039
  WS02004410           JUNCTION      0.00   536.67     0  02:31           0        5.56       0.070
  WS02004411           JUNCTION      0.00   536.55     0  02:28           0        5.56       0.092
  WS02004412           JUNCTION      0.00   536.50     0  02:32           0        5.55       0.125
  WS02004413           JUNCTION      0.00   536.46     0  02:28           0        5.55       0.229
  WS02006109           JUNCTION      1.23   573.97     0  03:01      0.0354        5.68       0.145
  WS02006110           JUNCTION      0.00   578.70     0  03:01           0        5.67       0.114
  WS02006111           JUNCTION      0.00   571.05     0  03:01           0        5.66       0.007
  WS02006112           JUNCTION      0.00   545.66     0  03:03           0        5.66       0.326
  WS02006113           JUNCTION      0.00   594.98     0  03:01           0        5.66       0.032
  WS02006115           JUNCTION      0.00   558.57     0  03:01           0        5.64       0.113
  WS02006116           JUNCTION      0.00   543.89     0  03:02           0        5.63       0.052
  WS02006228           JUNCTION      0.00   565.33     0  03:01           0        5.64       0.073
  WS02006229           JUNCTION      0.00   568.32     0  03:01           0        5.65       0.083
  WS02006230           JUNCTION     10.28   606.33     0  01:37       0.296        5.65       0.075
  WS02006231           JUNCTION      0.00   587.40     0  01:37           0        5.35      -0.060
  WS02006232           JUNCTION      0.00   583.12     0  01:37           0        5.36       0.156
  WS02006234           JUNCTION      0.00   568.97     0  01:37           0        5.35      -0.168
  WS02006235           JUNCTION      0.00   562.33     0  02:09           0        5.39       0.133
  WS02006238           JUNCTION      0.00   424.73     0  03:22           0        4.53      -0.154
  WS02006239           JUNCTION      0.00   423.86     0  03:22           0         4.5      -0.154
  WS02006240           JUNCTION      0.00   422.59     0  03:22           0        4.48      -0.059
  WS02006242           JUNCTION      0.00   422.71     0  03:22           0        4.47       0.009
  WS02006243           JUNCTION      0.00   422.73     0  03:22           0        4.47       0.081
  WS02006245           JUNCTION      0.00   421.75     0  03:22           0        4.48       0.270
  WS02006247           JUNCTION      0.00   420.70     0  03:22           0        4.48       0.025
  WS02006248           JUNCTION      0.00   421.23     0  03:22           0        4.48       0.097
  WS02006249           JUNCTION      0.00   459.02     0  00:00           0        4.76       0.415
  WS02006251           JUNCTION      0.08   406.46     0  01:36     0.00222        4.76       0.090
  WS02006252           JUNCTION      0.00   400.00     0  00:00           0        4.76      -0.057
  WS02006256           JUNCTION      0.00   300.00     0  00:00           0        1.32      -0.692
  WSF200               JUNCTION      0.00   536.43     0  02:29           0        5.53       0.006
  YS02001580           JUNCTION      0.00   152.23     0  01:32           0     0.00419      -5.907
  YS02001583           JUNCTION      0.00   273.89     0  01:33           0      0.0144     -11.928
  YS02001586           JUNCTION    885.04   885.04     0  01:42        2.33        2.34       0.079
  YS02001590           JUNCTION      0.00   323.50     0  02:15           0        1.63      -0.023
  YS02001593           JUNCTION      0.00   321.26     0  02:15           0        1.63       0.004
  YS02001596           JUNCTION      0.00   318.04     0  02:14           0        1.63       0.001
  YS02001600           JUNCTION      0.00   318.13     0  02:15           0        1.63      -0.002
  YS02001601           JUNCTION   1611.79  1929.34     0  01:40        3.15        4.79       0.012
  YS02001602           JUNCTION      0.00   573.10     0  01:32           0        2.63       0.013
  YS02001605           JUNCTION      0.00   572.94     0  01:32           0        2.46       0.021
  YS02001607           JUNCTION      0.00   572.93     0  01:32           0        2.46       0.081
  YS02001610           JUNCTION      0.00   890.98     0  01:42           0        2.95       0.075
  YS02001613           JUNCTION      0.00   554.83     0  01:42           0        2.26       0.068
  YS02001616           JUNCTION      0.00   555.00     0  01:42           0        2.26       0.016
  YS02001619           JUNCTION   1572.04  1572.04     0  01:42        3.74         5.5      -0.006
  YS02001622           JUNCTION      0.00  1022.14     0  01:41           0           5      -0.009
  YS02001625           JUNCTION      0.00  1441.03     0  01:43           0        5.34       0.175
  YS02001629           JUNCTION      0.00   954.43     0  01:33           0        3.94       0.001
  YS02001633           JUNCTION   1207.81  1441.89     0  01:34        2.32         5.8       0.055
  YS02001641           JUNCTION      0.00  1440.00     0  01:34           0        5.35       0.050
  YS02001644           JUNCTION   1081.09  1953.03     0  01:34        2.01        7.36       0.045
  YS02001647           JUNCTION      0.00  1952.16     0  01:34           0        6.55       0.006
  YS02001649           JUNCTION      0.00  2245.53     0  01:35           0        8.41       0.009
  YS02001652           JUNCTION      0.00  1084.61     0  01:37           0        1.85      -0.123
  YS02001655           JUNCTION      0.15  1082.63     0  01:37     0.00443        1.85      -0.045
  YS02001658           JUNCTION      0.00  1084.11     0  01:37           0        1.86      -0.071
  YS02001661           JUNCTION      0.00  1119.66     0  01:37           0        1.86       0.045
  YS02001664           JUNCTION   1048.13  1048.13     0  01:39        1.85        1.85      -0.023
  YS02001745           JUNCTION    682.43   869.73     0  01:36        1.11        1.11       0.099
  YS02001748           JUNCTION      0.04   823.27     0  01:35      0.0013        1.11      -0.461
  YS02001751           JUNCTION      0.01   690.68     0  01:37    0.000317        1.12       0.107
  YS02001754           JUNCTION      0.26   691.60     0  01:37     0.00749        1.14      -0.197
  YS02001757           JUNCTION      0.00  3645.01     0  01:37           0          13       0.045
  YS02001759           JUNCTION    943.75  1561.28     0  01:36        1.53        3.46      -0.017
  YS02001762           JUNCTION      0.00   826.28     0  01:35           0        1.93      -0.001
  YS02001765           JUNCTION      0.00   832.35     0  01:36           0        1.93       0.012
  YS02001767           JUNCTION      0.54   836.98     0  01:36      0.0154        1.93       0.011
  YS02001770           JUNCTION   1331.18  1331.18     0  01:39        2.33        2.37       0.014
  YS02001774           JUNCTION      0.00   783.61     0  01:39           0       0.479       0.286
  YS02001779           JUNCTION      0.01   783.35     0  01:39    0.000144       0.431      -0.207
  YS02001783           JUNCTION      0.00  1187.55     0  01:37           0        4.93       0.003
  YS02001784           JUNCTION      1.06  1181.98     0  01:37      0.0305        4.96       0.010
  YS02001786           JUNCTION      0.06  1183.90     0  01:37     0.00162        4.96       0.013
  YS02001788           JUNCTION      0.07  1185.05     0  01:37     0.00204        4.96       0.006
  YS02001790           JUNCTION      0.15  1183.16     0  01:35     0.00446        4.97       0.019
  YS02001791           JUNCTION      0.00  1297.59     0  01:37           0        4.96      -0.023
  YS02001793           JUNCTION      0.00  1251.00     0  01:43           0        4.97       0.006
  YS02001882           JUNCTION      0.00    95.68     0  01:33           0      0.0131       4.200
  YS02001884           JUNCTION      0.00   135.80     0  01:33           0      0.0494       5.493
  YS02001887           JUNCTION   1032.68  1033.81     0  01:38        1.59        1.63       0.267
  YS02001890           JUNCTION      0.00  1034.36     0  01:38           0        1.58       0.323
  YS02001895           JUNCTION      0.00   557.65     0  01:34           0        1.35       0.134
  YS02001898           JUNCTION      0.00   562.89     0  01:34           0        1.35      -0.009
  YS02001901           JUNCTION      0.00   567.22     0  01:34           0        1.35       0.258
  YS02001904           JUNCTION      0.00   567.43     0  01:34           0        1.36       0.215
  YS02001907           JUNCTION      0.00  2446.94     0  01:40           0        4.87       0.373
  YS02001910           JUNCTION      0.00  1746.52     0  01:40           0        3.46       0.213
  YS02001915           JUNCTION   1171.92  1746.17     0  01:40        2.22        3.51       0.043
  YS02001918           JUNCTION      0.00   623.16     0  01:34           0        1.33       0.008
  YS02001920           JUNCTION      2.87   622.93     0  01:34      0.0827        1.31       0.036
  YS02001923           JUNCTION      0.04   830.51     0  01:34     0.00109        1.21      -0.083
  YS02001926           JUNCTION      0.05  1110.40     0  01:34      0.0015        1.19      -0.254
  YS02001929           JUNCTION    565.51  1062.17     0  01:35        1.17        1.17      -0.062
  YS02006553           JUNCTION      0.00   792.76     0  02:05           0        2.75       0.436
  YS02006556           JUNCTION      0.00   792.53     0  02:05           0        2.76       0.285
  YS02006558           JUNCTION   1366.02  1366.02     0  01:39        2.33        5.01       0.068
  YS02006561           JUNCTION      0.00  1187.27     0  01:34           0        4.93       0.001
  YS02163301           JUNCTION      0.00   912.82     0  01:34           0        3.93       0.037
  YS02163601           JUNCTION      0.11  1441.23     0  01:34     0.00317        5.35       0.089
  YS02164001           JUNCTION      0.00  1440.40     0  01:34           0        5.35       0.038
  CC-1                 OUTFALL       0.00   683.00     0  00:00           0        4.36       0.000
  CC-2                 OUTFALL       0.00   683.00     0  00:00           0        3.89       0.000
  JK-1                 OUTFALL       0.00  1000.00     0  00:00           0        2.18       0.000
  JK-2                 OUTFALL       0.00  1000.00     0  00:00           0        1.43       0.000
  WSC                  OUTFALL       0.00   554.98     0  02:32           0        6.05       0.000
  CC-storage           STORAGE       0.00  3642.85     0  01:37           0        15.2      -0.084
  JK-storage           STORAGE       0.00  1296.43     0  01:43           0        5.12       0.113
  
  
  **********************
  Node Surcharge Summary
  **********************
  
  Surcharging occurs when water rises above the top of the highest conduit.
  ---------------------------------------------------------------------
                                               Max. Height   Min. Depth
                                   Hours       Above Crown    Below Rim
  Node                 Type      Surcharged         Meters       Meters
  ---------------------------------------------------------------------
  WS02006109           JUNCTION        2.51          0.440        1.380
  WS02006110           JUNCTION        0.88          0.454        1.396
  WS02006112           JUNCTION        0.86          0.062        1.618
  WS02006228           JUNCTION        2.50          0.395        1.805
  WS02006229           JUNCTION        2.51          0.428        2.022
  WS02006230           JUNCTION        0.89          0.255        1.315
  WS02006231           JUNCTION        1.01          0.688        0.842
  WS02006232           JUNCTION        2.53          1.480        0.000
  WS02006234           JUNCTION        1.38          1.240        0.000
  WS02006235           JUNCTION        2.48          1.290        0.000
  WS02006238           JUNCTION        2.51          1.430        0.000
  WS02006239           JUNCTION        2.49          1.290        0.000
  WS02006240           JUNCTION        2.50          1.390        0.000
  WS02006242           JUNCTION        2.51          0.820        0.000
  WS02006243           JUNCTION        2.50          0.770        0.000
  WS02006245           JUNCTION        2.49          0.850        0.000
  WS02006247           JUNCTION        2.49          0.760        0.000
  WS02006248           JUNCTION        2.48          0.380        0.000
  WS02006249           JUNCTION        2.48          0.390        0.000
  WS02006251           JUNCTION        1.07          0.326        0.854
  WS02006252           JUNCTION        2.72          1.100        0.000
  WS02006256           JUNCTION        5.56          2.050        0.000
  YS02001580           JUNCTION        0.87          0.450        0.000
  YS02001583           JUNCTION        0.88          0.500        0.000
  YS02001586           JUNCTION        1.05          0.510        0.000
  YS02001590           JUNCTION        1.14          0.750        0.000
  YS02001593           JUNCTION        1.15          0.745        0.095
  YS02001596           JUNCTION        1.27          0.976        0.094
  YS02001600           JUNCTION        1.45          1.190        0.000
  YS02001601           JUNCTION        1.73          1.440        0.000
  YS02001602           JUNCTION        1.66          1.270        0.000
  YS02001605           JUNCTION        1.62          1.180        0.000
  YS02001607           JUNCTION        1.14          0.680        0.000
  YS02001610           JUNCTION        1.17          0.680        0.000
  YS02001613           JUNCTION        1.14          0.700        0.000
  YS02001616           JUNCTION        1.09          0.610        0.000
  YS02001619           JUNCTION        1.07          0.610        0.000
  YS02001622           JUNCTION        1.07          0.620        0.000
  YS02001625           JUNCTION        1.28          0.780        0.000
  YS02001629           JUNCTION        1.01          0.470        0.000
  YS02001633           JUNCTION        1.31          1.060        0.000
  YS02001641           JUNCTION        1.26          1.009        0.091
  YS02001644           JUNCTION        1.24          0.920        0.000
  YS02001647           JUNCTION        1.01          0.876        0.024
  YS02001649           JUNCTION        1.17          1.050        0.000
  YS02001652           JUNCTION        0.93          1.130        0.000
  YS02001655           JUNCTION        0.67          1.200        0.000
  YS02001658           JUNCTION        0.33          1.153        0.147
  YS02001661           JUNCTION        0.11          1.183        0.207
  YS02001664           JUNCTION        0.01          0.795        0.515
  YS02001745           JUNCTION        0.01          1.234        0.116
  YS02001748           JUNCTION        0.25          1.190        0.000
  YS02001751           JUNCTION        0.47          1.200        0.000
  YS02001754           JUNCTION        0.80          1.150        0.000
  YS02001757           JUNCTION        1.26          1.210        0.000
  YS02001759           JUNCTION        1.15          1.210        0.000
  YS02001762           JUNCTION        1.11          1.150        0.000
  YS02001765           JUNCTION        1.05          1.100        0.000
  YS02001767           JUNCTION        1.01          1.030        0.000
  YS02001770           JUNCTION        0.97          0.920        0.000
  YS02001774           JUNCTION        1.09          1.050        0.000
  YS02001779           JUNCTION        0.77          0.680        0.000
  YS02001783           JUNCTION        0.73          0.839        0.761
  YS02001784           JUNCTION        0.71          0.595        0.895
  YS02001786           JUNCTION        0.59          0.220        1.210
  YS02001882           JUNCTION        0.66          0.830        0.000
  YS02001884           JUNCTION        0.68          0.853        0.017
  YS02001887           JUNCTION        0.72          0.950        0.000
  YS02001890           JUNCTION        0.73          0.760        0.000
  YS02001895           JUNCTION        0.66          0.639        0.111
  YS02001898           JUNCTION        0.65          0.587        0.153
  YS02001901           JUNCTION        0.71          0.774        0.096
  YS02001904           JUNCTION        0.69          0.716        0.134
  YS02001907           JUNCTION        0.95          0.950        0.000
  YS02001910           JUNCTION        0.77          1.039        0.061
  YS02001915           JUNCTION        0.67          1.000        0.000
  YS02001918           JUNCTION        0.57          0.810        0.000
  YS02001920           JUNCTION        0.59          1.140        0.000
  YS02001923           JUNCTION        0.21          0.820        0.000
  YS02001926           JUNCTION        0.25          0.900        0.000
  YS02001929           JUNCTION        0.04          0.780        0.000
  YS02006553           JUNCTION        0.99          1.190        0.000
  YS02006556           JUNCTION        0.86          1.224        0.126
  YS02006558           JUNCTION        0.85          1.400        0.000
  YS02006561           JUNCTION        0.53          0.476        0.674
  YS02163301           JUNCTION        1.29          0.937        0.093
  YS02163601           JUNCTION        1.35          1.080        0.000
  YS02164001           JUNCTION        1.27          1.034        0.066
  
  
  *********************
  Node Flooding Summary
  *********************
  
  Flooding refers to all water that overflows a node, whether it ponds or not.
  --------------------------------------------------------------------------
                                                             Total   Maximum
                                 Maximum   Time of Max       Flood    Ponded
                        Hours       Rate    Occurrence      Volume     Depth
  Node                 Flooded       LPS   days hr:min    10^6 ltr    Meters
  --------------------------------------------------------------------------
  WS02006232              0.01      3.33      0  01:37       0.000     0.000
  WS02006234              0.01      2.92      0  01:37       0.000     0.000
  WS02006235              0.01      3.40      0  03:01       0.000     0.000
  WS02006238              0.01      2.99      0  03:01       0.000     0.000
  WS02006239              0.01      1.82      0  03:01       0.000     0.000
  WS02006240              0.01      2.44      0  03:01       0.000     0.000
  WS02006242              0.01     17.76      0  03:01       0.000     0.000
  WS02006243              0.01      1.41      0  03:01       0.000     0.000
  WS02006245              0.01      1.39      0  03:01       0.000     0.000
  WS02006247              0.01      1.30      0  03:01       0.000     0.000
  WS02006248              0.01     19.85      0  03:01       0.000     0.000
  WS02006249              1.04    105.19      0  03:01       0.255     0.000
  WS02006252              0.01    245.63      0  00:00       0.000     0.000
  WS02006256              1.22    293.19      0  00:00       0.441     0.000
  YS02001580              0.01     65.74      0  01:32       0.000     0.000
  YS02001583              0.01    187.76      0  01:33       0.001     0.000
  YS02001586              0.71    567.53      0  01:42       0.697     0.000
  YS02001590              0.01      3.52      0  01:33       0.000     0.000
  YS02001600              0.01      5.36      0  01:33       0.000     0.000
  YS02001601              0.97   1531.47      0  01:40       2.153     0.000
  YS02001602              0.85     62.71      0  02:15       0.175     0.000
  YS02001605              0.01      2.84      0  01:33       0.000     0.000
  YS02001607              0.01      0.80      0  02:15       0.000     0.000
  YS02001610              0.75    890.90      0  01:42       1.186     0.000
  YS02001613              0.01      0.82      0  02:15       0.000     0.000
  YS02001616              0.01     37.66      0  01:33       0.000     0.000
  YS02001619              0.01     74.08      0  01:33       0.000     0.000
  YS02001622              0.01    176.90      0  01:33       0.000     0.000
  YS02001625              0.73   1440.99      0  01:43       1.832     0.000
  YS02001629              0.18    414.05      0  01:38       0.132     0.000
  YS02001633              0.01      1.93      0  01:37       0.000     0.000
  YS02001644              0.29   1359.78      0  01:39       0.791     0.000
  YS02001649              0.01    277.31      0  01:36       0.005     0.000
  YS02001652              0.01     51.30      0  01:36       0.000     0.000
  YS02001655              0.01     19.79      0  01:36       0.000     0.000
  YS02001748              0.01    544.32      0  01:36       0.001     0.000
  YS02001751              0.01     26.62      0  01:36       0.000     0.000
  YS02001754              0.01     77.48      0  01:36       0.000     0.000
  YS02001757              0.01    134.98      0  01:36       0.001     0.000
  YS02001759              0.01     26.37      0  01:36       0.000     0.000
  YS02001762              0.01     23.62      0  01:36       0.000     0.000
  YS02001765              0.01     14.73      0  01:36       0.000     0.000
  YS02001767              0.01     11.37      0  01:36       0.000     0.000
  YS02001770              0.02     92.46      0  01:36       0.004     0.000
  YS02001774              0.01      6.82      0  01:55       0.000     0.000
  YS02001779              0.26    783.11      0  01:39       0.411     0.000
  YS02001882              0.01      0.80      0  01:37       0.000     0.000
  YS02001887              0.01      2.06      0  01:37       0.000     0.000
  YS02001890              0.24    516.88      0  01:38       0.227     0.000
  YS02001907              0.51   2446.80      0  01:40       2.161     0.000
  YS02001915              0.01      4.34      0  01:37       0.000     0.000
  YS02001918              0.01    212.89      0  01:35       0.003     0.000
  YS02001920              0.01     50.34      0  01:35       0.000     0.000
  YS02001923              0.01    116.07      0  01:35       0.000     0.000
  YS02001926              0.01    585.87      0  01:35       0.005     0.000
  YS02001929              0.01    780.57      0  01:35       0.001     0.000
  YS02006553              0.01      1.10      0  01:37       0.000     0.000
  YS02163601              0.01      4.14      0  01:55       0.000     0.000
  
  
  **********************
  Storage Volume Summary
  **********************
  
  ------------------------------------------------------------------------------------------------
                         Average    Avg   Evap  Exfil     Maximum    Max    Time of Max    Maximum
                          Volume   Pcnt   Pcnt   Pcnt      Volume   Pcnt     Occurrence    Outflow
  Storage Unit           1000 m³   Full   Loss   Loss     1000 m³   Full    days hr:min        LPS
  ------------------------------------------------------------------------------------------------
  CC-storage               2.730   42.6    0.0    0.0       4.844   75.6       0  02:22    1783.53
  JK-storage               0.145   49.8    0.0    0.0       0.213   73.0       0  02:00    2300.00
  
  
  ***********************
  Outfall Loading Summary
  ***********************
  
  -----------------------------------------------------------
                         Flow       Avg       Max       Total
                         Freq      Flow      Flow      Volume
  Outfall Node           Pcnt       LPS       LPS    10^6 ltr
  -----------------------------------------------------------
  CC-1                  24.01    683.00    683.00       4.355
  CC-2                  24.20    683.00    683.00       3.891
  JK-1                   8.86   1000.00   1000.00       2.180
  JK-2                   6.13   1000.00   1000.00       1.432
  WSC                   99.96    264.05    554.98       6.050
  -----------------------------------------------------------
  System                32.63   3630.05   3848.42      17.908
  
  
  ********************
  Link Flow Summary
  ********************
  
  -----------------------------------------------------------------------------
                                 Maximum  Time of Max   Maximum    Max/    Max/
                                  |Flow|   Occurrence   |Veloc|    Full    Full
  Link                 Type          LPS  days hr:min     m/sec    Flow   Depth
  -----------------------------------------------------------------------------
  1                    CONDUIT    554.98     0  02:32      2.83    0.19    0.30
  WS02003060WS02003069 CONDUIT    552.97     0  02:29      1.64    0.22    0.34
  WS02003066WSF200     CONDUIT    536.43     0  02:29      2.85    0.09    0.22
  WS02003067WS02003066 CONDUIT    536.42     0  02:29      1.21    0.17    0.42
  WS02003069WS02003072 CONDUIT    553.24     0  02:30      1.37    0.27    0.39
  WS02003072WS02003073 CONDUIT    553.20     0  02:31      1.44    1.19    0.37
  WS02004401WS02004402 CONDUIT    537.36     0  02:30      1.07    0.65    0.86
  WS02004402WS02004403 CONDUIT    537.14     0  02:30      1.08    0.77    0.88
  WS02004403WS02004404 CONDUIT    536.96     0  02:30      1.06    0.39    0.93
  WS02004404WS02004405 CONDUIT    537.14     0  02:30      1.24    5.26    0.96
  WS02004405WS02004406 CONDUIT    537.24     0  02:30      1.20    1.06    0.96
  WS02004406WS02004407 CONDUIT    536.94     0  02:31      1.04    0.24    0.63
  WS02004407WS02004409 CONDUIT    536.75     0  02:31      1.57    0.19    0.48
  WS02004409WS02004410 CONDUIT    536.67     0  02:31      1.05    0.69    0.67
  WS02004410WS02004411 CONDUIT    536.55     0  02:28      0.98    0.73    0.69
  WS02004411WS02004412 CONDUIT    536.50     0  02:32      0.93    0.76    0.69
  WS02004412WS02004413 CONDUIT    536.46     0  02:28      0.88    0.36    0.78
  WS02004413WS02003067 CONDUIT    536.41     0  02:28      1.11    0.23    0.59
  WS02006109WS02006110 CONDUIT    578.70     0  03:01      1.15    1.11    1.00
  WS02006110WS02006113 CONDUIT    594.98     0  03:01      1.43    0.54    0.79
  WS02006111WS02006112 CONDUIT    545.66     0  03:03      1.84    0.26    0.67
  WS02006112WS02006115 CONDUIT    558.57     0  03:01      0.86    0.33    0.87
  WS02006113WS02006111 CONDUIT    571.05     0  03:01      2.48    0.68    0.47
  WS02006115WS02006116 CONDUIT    543.89     0  03:02      1.11    0.70    0.76
  WS02006116WS02004401 CONDUIT    538.58     0  03:02      1.07    0.74    0.84
  WS02006228WS02006109 CONDUIT    572.74     0  03:01      1.14    2.50    1.00
  WS02006229WS02006228 CONDUIT    565.33     0  03:01      1.12    1.87    1.00
  WS02006230WS02006229 CONDUIT    568.32     0  03:01      1.48   12.65    1.00
  WS02006231WS02006230 CONDUIT    596.05     0  01:37      1.59    9.04    1.00
  WS02006232WS02006231 CONDUIT    587.40     0  01:37      1.53    1.23    1.00
  WS02006234WS02006232 CONDUIT    583.12     0  01:37      1.52    1.18    1.00
  WS02006235WS02006234 CONDUIT    568.97     0  01:37      1.48    6.00    1.00
  WS02006238WS02006235 CONDUIT    423.76     0  03:22      1.45    0.95    1.00
  WS02006239WS02006238 CONDUIT    424.73     0  03:22      1.10    1.36    1.00
  WS02006240WS02006239 CONDUIT    423.86     0  03:22      1.24    1.33    1.00
  WS02006242WS02006240 CONDUIT    422.59     0  03:22      1.13    1.68    1.00
  WS02006243WS02006242 CONDUIT    422.71     0  03:22      1.40    0.90    1.00
  WS02006245WS02006243 CONDUIT    422.73     0  03:22      1.45    1.25    1.00
  WS02006247WS02006245 CONDUIT    421.75     0  03:22      1.43    3.34    1.00
  WS02006248WS02006247 CONDUIT    420.70     0  03:22      1.44    0.92    1.00
  WS02006249WS02006248 CONDUIT    421.23     0  03:22      1.41    2.31    1.00
  WS02006251WS02006249 CONDUIT    459.02     0  00:00      1.99    1.32    1.00
  WS02006252WS02006251 CONDUIT    406.38     0  01:36     25.54    1.49    1.00
  WS02006256WS02006235 CONDUIT    288.91     0  00:00      4.23    3.06    1.00
  WSF200WS02003060     CONDUIT    536.46     0  02:29      2.06    0.12    0.28
  YS02001580YS02001583 CONDUIT    152.23     0  01:32      0.86    0.59    1.00
  YS02001583YS02001586 CONDUIT    197.15     0  01:33      0.87    0.30    1.00
  YS02001586YS02001590 CONDUIT    323.50     0  02:15      1.27    0.57    1.00
  YS02001590YS02001593 CONDUIT    321.26     0  02:15      1.14    2.02    1.00
  YS02001593YS02001596 CONDUIT    318.04     0  02:14      1.74    0.50    1.00
  YS02001596YS02001600 CONDUIT    318.13     0  02:15      1.23    0.62    1.00
  YS02001600YS02001601 CONDUIT    318.26     0  01:52      1.13    0.55    1.00
  YS02001601YS02001602 CONDUIT    573.10     0  01:32      2.03    2.07    1.00
  YS02001602YS02001605 CONDUIT    572.94     0  01:32      2.03   12.12    1.00
  YS02001605YS02001607 CONDUIT    572.93     0  01:32      2.03    3.14    1.00
  YS02001607YS02001610 CONDUIT    541.05     0  01:32      0.71    0.51    1.00
  YS02001610YS02001613 CONDUIT    554.91     0  01:42      0.71    0.64    1.00
  YS02001613YS02001616 CONDUIT    554.83     0  01:42      0.71    0.48    1.00
  YS02001616YS02001619 CONDUIT    555.00     0  01:42      0.71    0.96    1.00
  YS02001619YS02001622 CONDUIT   1022.14     0  01:41      1.30    1.51    1.00
  YS02001622YS02001625 CONDUIT   1021.69     0  01:41      1.30    0.55    1.00
  YS02001625YS02001629 CONDUIT    954.43     0  01:33      1.22    0.45    1.00
  YS02001629YS02163301 CONDUIT    912.82     0  01:34      1.16    1.12    1.00
  YS02001633YS02163601 CONDUIT   1441.12     0  01:34      1.83    1.51    1.00
  YS02001641YS02001644 CONDUIT   1439.69     0  01:34      1.83    4.65    1.00
  YS02001644YS02001647 CONDUIT   1952.16     0  01:34      2.49    1.15    1.00
  YS02001647YS02001649 CONDUIT   1919.97     0  01:34      2.44    1.01    1.00
  YS02001649YS02001757 CONDUIT   2220.48     0  01:34      2.83    1.35    1.00
  YS02001652YS02001649 CONDUIT   1088.31     0  01:37      1.39    0.54    1.00
  YS02001655YS02001652 CONDUIT   1084.61     0  01:37      1.55    0.53    1.00
  YS02001658YS02001655 CONDUIT   1082.48     0  01:37      2.04    0.46    1.00
  YS02001661YS02001658 CONDUIT   1084.11     0  01:37      2.44    0.43    1.00
  YS02001664YS02001661 CONDUIT   1119.66     0  01:37      2.56    0.35    1.00
  YS02001745YS02001748 CONDUIT    689.60     0  01:37      2.41    0.27    1.00
  YS02001748YS02001751 CONDUIT    690.66     0  01:37      1.88    0.35    1.00
  YS02001751YS02001754 CONDUIT    691.34     0  01:37      1.59    0.33    1.00
  YS02001754YS02001757 CONDUIT    691.99     0  01:37      0.88    0.28    1.00
  YS02001757CaochengTiaoxuchi CONDUIT   3642.85     0  01:37      4.98    1.58    1.00
  YS02001759YS02001757 CONDUIT   1568.57     0  01:36      2.00    1.11    1.00
  YS02001762YS02001759 CONDUIT    825.52     0  01:35      1.05    0.95    1.00
  YS02001765YS02001762 CONDUIT    826.28     0  01:35      1.05    0.77    1.00
  YS02001767YS02001765 CONDUIT    832.35     0  01:36      1.06    1.05    1.00
  YS02001770YS02001767 CONDUIT    836.45     0  01:36      1.06    3.31    1.00
  YS02001774YS02001770 CONDUIT    783.61     0  01:39      1.00    0.50    1.00
  YS02001779YS02001774 CONDUIT    783.35     0  01:39      1.00    0.39    1.00
  YS02001783YS02001784 CONDUIT   1180.92     0  01:37      2.35    1.63    1.00
  YS02001784YS02001785 CONDUIT   1183.84     0  01:37      2.36    2.75    1.00
  YS02001786YS02001788 CONDUIT   1184.98     0  01:37      2.52    2.28    0.89
  YS02001788YS02001790 CONDUIT   1183.01     0  01:35      2.73    0.87    0.84
  YS02001790YS02001791 CONDUIT   1297.59     0  01:37      3.43    1.41    0.71
  YS02001791YS02001793 CONDUIT   1251.00     0  01:43      6.75    0.54    0.45
  YS02001793JiankangQianchi CONDUIT   1296.43     0  01:43      2.59    0.10    0.65
  YS02001882YS02001884 CONDUIT     95.68     0  01:33      0.18    0.11    1.00
  YS02001884YS02001887 CONDUIT    135.80     0  01:33      0.17    0.18    1.00
  YS02001887YS02001890 CONDUIT   1034.36     0  01:38      1.32    1.77    1.00
  YS02001890YS02001895 CONDUIT    557.65     0  01:34      0.71    0.26    1.00
  YS02001895YS02001898 CONDUIT    562.89     0  01:34      0.72    0.98    1.00
  YS02001898YS02001901 CONDUIT    567.22     0  01:34      0.72    0.37    1.00
  YS02001901YS02001904 CONDUIT    567.43     0  01:34      0.72    0.88    1.00
  YS02001904YS02001907 CONDUIT    564.41     0  01:34      0.72    0.20    1.00
  YS02001907YS02006553 CONDUIT    792.76     0  02:05      0.88    0.93    1.00
  YS02001910YS02001907 CONDUIT   1747.21     0  01:40      2.22    0.98    1.00
  YS02001915YS02001910 CONDUIT   1746.52     0  01:40      2.22    0.87    1.00
  YS02001918YS02001915 CONDUIT    623.16     0  01:34      0.80    0.34    1.00
  YS02001920YS02001918 CONDUIT    620.06     0  01:34      0.79    0.60    1.00
  YS02001923YS02001920 CONDUIT    632.13     0  01:34      0.85    0.28    1.00
  YS02001926YS02001923 CONDUIT    882.86     0  01:34      1.33    1.26    1.00
  YS02001929YS02001926 CONDUIT    777.62     0  01:35      1.22    0.37    1.00
  YS02006553YS02006556 CONDUIT    792.53     0  02:05      1.01    0.68    1.00
  YS02006556YS02006558 CONDUIT    794.35     0  02:05      1.01    0.63    1.00
  YS02006558YS02006561 CONDUIT   1187.27     0  01:34      4.20    2.62    1.00
  YS02006561YS02001783 CONDUIT   1187.55     0  01:37      2.36    0.62    1.00
  YS02163301YS02001633 CONDUIT    911.54     0  01:34      1.16    0.86    1.00
  YS02163601YS02164001 CONDUIT   1440.40     0  01:34      1.83    1.28    1.00
  YS02164001YS02001641 CONDUIT   1440.00     0  01:34      1.83    1.97    1.00
  CC-R1                PUMP       683.00     0  00:00              1.00
  CC-R2                PUMP       683.00     0  00:00              1.00
  CC-S1                PUMP       200.00     0  00:00              1.00
  CC-S2                PUMP       200.00     0  00:00              1.00
  JK-R1                PUMP      1000.00     0  00:00              1.00
  JK-R2                PUMP      1000.00     0  00:00              1.00
  JK-S                 PUMP       300.00     0  00:00              1.00
  
  
  ***************************
  Flow Classification Summary
  ***************************
  
  -------------------------------------------------------------------------------------
                      Adjusted    ---------- Fraction of Time in Flow Class ---------- 
                       /Actual         Up    Down  Sub   Sup   Up    Down  Norm  Inlet 
  Conduit               Length    Dry  Dry   Dry   Crit  Crit  Crit  Crit  Ltd   Ctrl  
  -------------------------------------------------------------------------------------
  1                       1.00   0.00  0.00  0.00  0.00  1.00  0.00  0.00  0.43  0.00
  WS02003060WS02003069    1.00   0.00  0.00  0.00  0.98  0.02  0.00  0.00  0.65  0.00
  WS02003066WSF200        1.00   0.06  0.00  0.00  0.00  0.93  0.00  0.00  0.81  0.00
  WS02003067WS02003066    1.00   0.06  0.01  0.00  0.94  0.00  0.00  0.00  0.00  0.00
  WS02003069WS02003072    1.00   0.00  0.00  0.00  0.99  0.01  0.00  0.00  0.67  0.00
  WS02003072WS02003073    1.00   0.00  0.00  0.00  0.00  0.00  0.00  1.00  0.00  0.00
  WS02004401WS02004402    1.00   0.02  0.00  0.00  0.98  0.00  0.00  0.00  0.00  0.00
  WS02004402WS02004403    1.00   0.02  0.00  0.00  0.97  0.00  0.00  0.00  0.00  0.00
  WS02004403WS02004404    1.00   0.00  0.03  0.00  0.97  0.00  0.00  0.00  0.00  0.00
  WS02004404WS02004405    1.00   0.00  0.00  0.00  1.00  0.00  0.00  0.00  0.01  0.00
  WS02004405WS02004406    1.00   0.00  0.00  0.00  1.00  0.00  0.00  0.00  0.00  0.00
  WS02004406WS02004407    1.00   0.00  0.04  0.00  0.96  0.00  0.00  0.00  0.00  0.00
  WS02004407WS02004409    1.00   0.04  0.00  0.00  0.95  0.01  0.00  0.00  0.95  0.00
  WS02004409WS02004410    1.00   0.04  0.00  0.00  0.96  0.00  0.00  0.00  0.00  0.00
  WS02004410WS02004411    1.00   0.04  0.00  0.00  0.96  0.00  0.00  0.00  0.00  0.00
  WS02004411WS02004412    1.00   0.04  0.00  0.00  0.96  0.00  0.00  0.00  0.00  0.00
  WS02004412WS02004413    1.00   0.04  0.00  0.00  0.95  0.00  0.00  0.00  0.00  0.00
  WS02004413WS02003067    1.00   0.04  0.01  0.00  0.00  0.00  0.94  0.00  0.00  0.00
  WS02006109WS02006110    1.00   0.00  0.01  0.00  0.98  0.00  0.01  0.00  0.00  0.00
  WS02006110WS02006113    1.00   0.01  0.01  0.00  0.98  0.00  0.00  0.00  0.00  0.00
  WS02006111WS02006112    1.00   0.02  0.00  0.00  0.98  0.00  0.00  0.00  0.98  0.00
  WS02006112WS02006115    1.00   0.02  0.00  0.00  0.97  0.00  0.00  0.00  0.00  0.00
  WS02006113WS02006111    1.00   0.02  0.00  0.00  0.00  0.98  0.00  0.00  0.15  0.00
  WS02006115WS02006116    1.00   0.02  0.00  0.00  0.97  0.00  0.00  0.01  0.00  0.00
  WS02006116WS02004401    1.00   0.02  0.00  0.00  0.98  0.00  0.00  0.00  0.00  0.00
  WS02006228WS02006109    1.00   0.00  0.00  0.00  1.00  0.00  0.00  0.00  0.00  0.00
  WS02006229WS02006228    1.00   0.00  0.00  0.00  0.99  0.00  0.00  0.01  0.00  0.00
  WS02006230WS02006229    1.00   0.00  0.00  0.00  0.99  0.00  0.00  0.01  0.00  0.00
  WS02006231WS02006230    1.00   0.00  0.00  0.00  0.32  0.00  0.68  0.00  0.00  0.00
  WS02006232WS02006231    1.00   0.00  0.00  0.00  0.99  0.00  0.01  0.00  0.00  0.00
  WS02006234WS02006232    1.00   0.00  0.00  0.00  1.00  0.00  0.00  0.00  0.16  0.00
  WS02006235WS02006234    1.00   0.00  0.00  0.00  0.77  0.00  0.23  0.00  0.00  0.00
  WS02006238WS02006235    1.00   0.00  0.00  0.00  1.00  0.00  0.00  0.00  0.00  0.00
  WS02006239WS02006238    1.00   0.00  0.00  0.00  1.00  0.00  0.00  0.00  0.30  0.00
  WS02006240WS02006239    1.00   0.00  0.00  0.00  0.64  0.00  0.00  0.36  0.03  0.00
  WS02006242WS02006240    1.00   0.00  0.00  0.00  0.98  0.00  0.01  0.00  0.00  0.00
  WS02006243WS02006242    1.00   0.00  0.00  0.00  0.98  0.00  0.00  0.01  0.47  0.00
  WS02006245WS02006243    1.00   0.00  0.00  0.00  0.69  0.00  0.00  0.30  0.01  0.00
  WS02006247WS02006245    1.00   0.00  0.00  0.00  0.98  0.00  0.00  0.02  0.00  0.00
  WS02006248WS02006247    1.00   0.00  0.00  0.00  0.99  0.00  0.00  0.01  0.21  0.00
  WS02006249WS02006248    1.00   0.00  0.00  0.00  0.52  0.00  0.48  0.00  0.00  0.00
  WS02006251WS02006249    1.00   0.00  0.00  0.00  1.00  0.00  0.00  0.00  0.48  0.00
  WS02006252WS02006251    1.00   0.00  0.51  0.00  0.13  0.00  0.36  0.00  0.00  0.00
  WS02006256WS02006235    1.00   0.00  0.00  0.00  1.00  0.00  0.00  0.00  0.00  0.00
  WSF200WS02003060        1.00   0.00  0.06  0.00  0.31  0.62  0.00  0.00  0.49  0.00
  YS02001580YS02001583    1.00   0.19  0.58  0.00  0.23  0.00  0.00  0.00  0.67  0.00
  YS02001583YS02001586    1.00   0.41  0.30  0.00  0.29  0.00  0.00  0.00  0.67  0.00
  YS02001586YS02001590    1.00   0.13  0.00  0.00  0.44  0.04  0.00  0.40  0.33  0.00
  YS02001590YS02001593    1.00   0.13  0.01  0.00  0.16  0.00  0.71  0.00  0.00  0.00
  YS02001593YS02001596    1.00   0.13  0.00  0.00  0.18  0.01  0.00  0.68  0.02  0.00
  YS02001596YS02001600    1.00   0.13  0.00  0.00  0.23  0.01  0.00  0.63  0.03  0.00
  YS02001600YS02001601    1.00   0.13  0.01  0.00  0.86  0.00  0.00  0.00  0.58  0.00
  YS02001601YS02001602    1.00   0.13  0.01  0.00  0.87  0.00  0.00  0.00  0.00  0.00
  YS02001602YS02001605    1.00   0.13  0.00  0.00  0.87  0.00  0.00  0.00  0.00  0.00
  YS02001605YS02001607    1.00   0.13  0.00  0.00  0.87  0.00  0.00  0.00  0.00  0.00
  YS02001607YS02001610    1.00   0.13  0.01  0.00  0.86  0.00  0.00  0.00  0.01  0.00
  YS02001610YS02001613    1.00   0.13  0.00  0.00  0.87  0.00  0.00  0.00  0.00  0.00
  YS02001613YS02001616    1.00   0.13  0.00  0.00  0.87  0.00  0.00  0.00  0.00  0.00
  YS02001616YS02001619    1.00   0.13  0.00  0.00  0.87  0.00  0.00  0.00  0.00  0.00
  YS02001619YS02001622    1.00   0.13  0.00  0.00  0.87  0.00  0.00  0.00  0.28  0.00
  YS02001622YS02001625    1.00   0.13  0.00  0.00  0.87  0.00  0.00  0.00  0.03  0.00
  YS02001625YS02001629    1.00   0.13  0.04  0.00  0.20  0.00  0.63  0.00  0.00  0.00
  YS02001629YS02163301    1.00   0.14  0.01  0.00  0.85  0.00  0.00  0.00  0.00  0.00
  YS02001633YS02163601    1.00   0.00  0.01  0.00  0.99  0.00  0.00  0.00  0.14  0.00
  YS02001641YS02001644    1.00   0.00  0.01  0.00  0.99  0.00  0.00  0.00  0.00  0.00
  YS02001644YS02001647    1.00   0.00  0.16  0.00  0.84  0.00  0.00  0.00  0.00  0.00
  YS02001647YS02001649    1.00   0.00  0.16  0.00  0.62  0.22  0.00  0.00  0.54  0.00
  YS02001649YS02001757    1.00   0.00  0.00  0.00  0.90  0.10  0.00  0.00  0.39  0.00
  YS02001652YS02001649    1.00   0.00  0.00  0.00  0.97  0.03  0.00  0.00  0.70  0.00
  YS02001655YS02001652    1.00   0.00  0.00  0.00  0.23  0.01  0.00  0.76  0.04  0.00
  YS02001658YS02001655    1.00   0.00  0.14  0.00  0.71  0.15  0.00  0.00  0.65  0.00
  YS02001661YS02001658    1.00   0.14  0.00  0.00  0.55  0.32  0.00  0.00  0.69  0.00
  YS02001664YS02001661    1.00   0.13  0.00  0.00  0.77  0.11  0.00  0.00  0.84  0.00
  YS02001745YS02001748    1.00   0.00  0.00  0.00  0.15  0.01  0.00  0.84  0.06  0.00
  YS02001748YS02001751    1.00   0.00  0.00  0.00  0.87  0.13  0.00  0.00  0.76  0.00
  YS02001751YS02001754    1.00   0.00  0.00  0.00  0.22  0.00  0.00  0.78  0.04  0.00
  YS02001754YS02001757    1.00   0.00  0.00  0.00  1.00  0.00  0.00  0.00  0.74  0.00
  YS02001757CaochengTiaoxuchi    1.00   0.00  0.00  0.00  0.97  0.03  0.00  0.00  0.48  0.00
  YS02001759YS02001757    1.00   0.00  0.00  0.00  0.98  0.02  0.00  0.00  0.51  0.00
  YS02001762YS02001759    1.00   0.00  0.00  0.00  1.00  0.00  0.00  0.00  0.04  0.00
  YS02001765YS02001762    1.00   0.00  0.00  0.00  1.00  0.00  0.00  0.00  0.63  0.00
  YS02001767YS02001765    1.00   0.00  0.00  0.00  1.00  0.00  0.00  0.00  0.01  0.00
  YS02001770YS02001767    1.00   0.00  0.00  0.00  1.00  0.00  0.00  0.00  0.00  0.00
  YS02001774YS02001770    1.00   0.00  0.13  0.00  0.71  0.00  0.16  0.00  0.02  0.00
  YS02001779YS02001774    1.00   0.00  0.00  0.00  1.00  0.00  0.00  0.00  0.74  0.00
  YS02001783YS02001784    1.00   0.00  0.16  0.00  0.84  0.00  0.00  0.00  0.55  0.00
  YS02001784YS02001785    1.00   0.00  0.00  0.00  1.00  0.00  0.00  0.00  0.15  0.00
  YS02001786YS02001788    1.00   0.00  0.00  0.00  0.79  0.21  0.00  0.00  0.00  0.00
  YS02001788YS02001790    1.00   0.00  0.00  0.00  0.21  0.79  0.00  0.00  0.78  0.00
  YS02001790YS02001791    1.00   0.00  0.00  0.00  0.01  0.99  0.00  0.00  0.17  0.00
  YS02001791YS02001793    1.00   0.00  0.00  0.00  0.00  1.00  0.00  0.00  0.01  0.00
  YS02001793JiankangQianchi    1.00   0.00  0.00  0.00  0.97  0.03  0.00  0.00  0.94  0.00
  YS02001882YS02001884    1.00   0.15  0.01  0.00  0.85  0.00  0.00  0.00  0.00  0.00
  YS02001884YS02001887    1.00   0.06  0.05  0.00  0.89  0.00  0.00  0.00  0.00  0.00
  YS02001887YS02001890    1.00   0.00  0.00  0.00  0.97  0.00  0.03  0.00  0.00  0.00
  YS02001890YS02001895    1.00   0.00  0.15  0.00  0.85  0.00  0.00  0.00  0.00  0.00
  YS02001895YS02001898    1.00   0.15  0.00  0.00  0.83  0.00  0.01  0.00  0.00  0.00
  YS02001898YS02001901    1.00   0.16  0.00  0.00  0.84  0.00  0.00  0.00  0.00  0.00
  YS02001901YS02001904    1.00   0.16  0.00  0.00  0.84  0.00  0.00  0.00  0.00  0.00
  YS02001904YS02001907    1.00   0.00  0.15  0.00  0.84  0.00  0.00  0.00  0.00  0.00
  YS02001907YS02006553    1.00   0.00  0.02  0.00  0.98  0.00  0.00  0.00  0.00  0.00
  YS02001910YS02001907    1.00   0.00  0.00  0.00  0.97  0.00  0.00  0.03  0.12  0.00
  YS02001915YS02001910    1.00   0.00  0.00  0.00  0.97  0.03  0.00  0.00  0.13  0.00
  YS02001918YS02001915    1.00   0.00  0.01  0.00  0.98  0.02  0.00  0.00  0.72  0.00
  YS02001920YS02001918    1.00   0.00  0.01  0.00  0.99  0.00  0.00  0.00  0.00  0.00
  YS02001923YS02001920    1.00   0.00  0.00  0.00  1.00  0.00  0.00  0.00  0.90  0.00
  YS02001926YS02001923    1.00   0.00  0.07  0.00  0.08  0.00  0.84  0.00  0.00  0.00
  YS02001929YS02001926    1.00   0.00  0.13  0.00  0.87  0.00  0.00  0.00  0.80  0.00
  YS02006553YS02006556    1.00   0.01  0.00  0.00  0.99  0.00  0.00  0.00  0.03  0.00
  YS02006556YS02006558    1.00   0.00  0.00  0.00  1.00  0.00  0.00  0.00  0.00  0.00
  YS02006558YS02006561    1.00   0.16  0.00  0.00  0.08  0.76  0.00  0.00  0.17  0.00
  YS02006561YS02001783    1.00   0.16  0.00  0.00  0.11  0.72  0.00  0.00  0.66  0.00
  YS02163301YS02001633    1.00   0.00  0.14  0.00  0.86  0.00  0.00  0.00  0.00  0.00
  YS02163601YS02164001    1.00   0.00  0.08  0.00  0.92  0.00  0.00  0.00  0.00  0.00
  YS02164001YS02001641    1.00   0.01  0.07  0.00  0.92  0.00  0.00  0.00  0.05  0.00
  
  
  *************************
  Conduit Surcharge Summary
  *************************
  
  ----------------------------------------------------------------------------
                                                           Hours        Hours 
                         --------- Hours Full --------   Above Full   Capacity
  Conduit                Both Ends  Upstream  Dnstream   Normal Flow   Limited
  ----------------------------------------------------------------------------
  WS02003072WS02003073        0.01      0.01      0.01      1.48         0.01
  WS02004404WS02004405        0.01      0.01      0.01      3.72         0.01
  WS02004405WS02004406        0.01      0.01      0.01      0.76         0.01
  WS02006109WS02006110        0.88      0.88      2.53      0.99         0.01
  WS02006110WS02006113        0.01      0.01      2.52      0.01         0.01
  WS02006111WS02006112        0.01      0.01      2.63      0.01         0.01
  WS02006112WS02006115        0.01      0.01      0.86      0.01         0.01
  WS02006228WS02006109        2.51      2.53      2.51      2.84         2.50
  WS02006229WS02006228        2.50      2.51      2.50      2.62         2.49
  WS02006230WS02006229        2.54      2.59      2.54      4.45         2.54
  WS02006231WS02006230        0.89      0.89      1.05      4.11         0.01
  WS02006232WS02006231        1.00      1.00      2.53      1.08         0.01
  WS02006234WS02006232        2.46      2.46      2.53      1.07         1.05
  WS02006235WS02006234        1.37      1.38      2.47      3.97         0.02
  WS02006238WS02006235        2.49      2.49      2.53      0.01         0.01
  WS02006239WS02006238        2.51      2.52      2.51      2.57         2.31
  WS02006240WS02006239        2.49      2.50      2.49      2.57         2.20
  WS02006242WS02006240        2.50      2.50      2.52      2.70         0.01
  WS02006243WS02006242        2.50      2.50      2.51      0.01         0.04
  WS02006245WS02006243        2.49      2.49      2.50      1.67         1.69
  WS02006247WS02006245        2.49      2.50      2.49      3.83         2.48
  WS02006248WS02006247        2.49      2.49      2.49      0.01         0.04
  WS02006249WS02006248        2.48      2.48      2.48      3.80         0.01
  WS02006251WS02006249        2.48      2.48      2.48      2.66         2.41
  WS02006252WS02006251        2.71      2.71      2.72      2.71         0.01
  WS02006256WS02006235        3.95      3.99      5.53      1.22         0.01
  YS02001580YS02001583        0.87      0.87      0.94      0.01         0.01
  YS02001583YS02001586        0.88      0.88      1.05      0.01         0.01
  YS02001586YS02001590        1.06      1.06      1.14      0.01         0.01
  YS02001590YS02001593        1.15      1.15      1.16      1.22         0.01
  YS02001593YS02001596        1.15      1.15      1.27      0.01         0.01
  YS02001596YS02001600        1.32      1.32      1.45      0.01         0.01
  YS02001600YS02001601        1.53      1.53      1.73      0.01         0.01
  YS02001601YS02001602        1.66      1.66      1.76      1.45         0.01
  YS02001602YS02001605        1.62      1.62      1.66      2.40         0.01
  YS02001605YS02001607        1.59      1.62      1.59      1.70         1.59
  YS02001607YS02001610        1.14      1.14      1.17      0.01         0.01
  YS02001610YS02001613        1.14      1.14      1.17      0.01         0.01
  YS02001613YS02001616        1.09      1.09      1.14      0.01         0.01
  YS02001616YS02001619        1.07      1.07      1.09      0.01         0.06
  YS02001619YS02001622        1.07      1.07      1.07      1.13         1.00
  YS02001622YS02001625        1.07      1.07      1.28      0.01         0.01
  YS02001625YS02001629        1.01      1.01      1.28      0.01         0.01
  YS02001629YS02163301        1.28      1.28      1.29      0.02         0.15
  YS02001633YS02163601        1.31      1.31      1.35      0.38         0.35
  YS02001641YS02001644        1.24      1.26      1.24      1.78         1.22
  YS02001644YS02001647        1.01      1.01      1.24      0.04         0.01
  YS02001647YS02001649        1.01      1.01      1.17      0.01         0.01
  YS02001649YS02001757        1.17      1.17      1.26      0.05         0.05
  YS02001652YS02001649        0.97      0.97      1.17      0.01         0.01
  YS02001655YS02001652        0.67      0.67      0.93      0.01         0.01
  YS02001658YS02001655        0.33      0.33      0.67      0.01         0.01
  YS02001661YS02001658        0.11      0.11      0.33      0.01         0.01
  YS02001664YS02001661        0.01      0.01      0.15      0.01         0.01
  YS02001745YS02001748        0.01      0.01      0.25      0.01         0.01
  YS02001748YS02001751        0.30      0.30      0.47      0.01         0.01
  YS02001751YS02001754        0.47      0.47      0.80      0.01         0.01
  YS02001754YS02001757        0.87      0.87      1.26      0.01         0.01
  YS02001757CaochengTiaoxuchi        1.15      1.26      2.32      0.49         0.36
  YS02001759YS02001757        1.15      1.15      1.26      0.10         0.10
  YS02001762YS02001759        1.11      1.11      1.15      0.01         0.02
  YS02001765YS02001762        1.05      1.05      1.11      0.01         0.01
  YS02001767YS02001765        1.01      1.01      1.05      0.01         0.02
  YS02001770YS02001767        1.00      1.00      1.01      0.73         0.68
  YS02001774YS02001770        0.97      0.97      1.09      0.01         0.01
  YS02001779YS02001774        0.77      0.77      1.09      0.01         0.01
  YS02001783YS02001784        0.71      0.73      0.71      0.89         0.71
  YS02001784YS02001785        0.59      0.71      0.59      1.21         0.59
  YS02001786YS02001788        0.01      0.59      0.01      1.01         0.01
  YS02001790YS02001791        0.01      0.01      0.01      0.69         0.01
  YS02001793JiankangQianchi        0.01      0.01      7.33      0.01         0.01
  YS02001882YS02001884        0.66      0.66      0.68      0.01         0.01
  YS02001884YS02001887        0.70      0.70      0.72      0.01         0.01
  YS02001887YS02001890        0.73      0.73      0.75      0.20         0.01
  YS02001890YS02001895        0.66      0.66      0.77      0.01         0.01
  YS02001895YS02001898        0.65      0.65      0.66      0.01         0.01
  YS02001898YS02001901        0.66      0.66      0.71      0.01         0.01
  YS02001901YS02001904        0.69      0.69      0.71      0.01         0.01
  YS02001904YS02001907        0.69      0.69      0.99      0.01         0.01
  YS02001907YS02006553        1.22      1.22      1.31      0.01         0.01
  YS02001910YS02001907        0.77      0.77      0.95      0.01         0.01
  YS02001915YS02001910        0.67      0.67      0.77      0.01         0.01
  YS02001918YS02001915        0.57      0.57      0.67      0.01         0.01
  YS02001920YS02001918        0.57      0.57      0.59      0.01         0.01
  YS02001923YS02001920        0.52      0.52      0.59      0.01         0.01
  YS02001926YS02001923        0.20      0.21      0.24      0.01         0.01
  YS02001929YS02001926        0.04      0.04      0.24      0.01         0.01
  YS02006553YS02006556        0.86      0.86      0.99      0.01         0.01
  YS02006556YS02006558        0.92      0.92      1.02      0.01         0.01
  YS02006558YS02006561        0.61      0.85      0.61      1.14         0.61
  YS02006561YS02001783        0.53      0.53      0.73      0.01         0.01
  YS02163301YS02001633        1.29      1.29      1.33      0.01         0.01
  YS02163601YS02164001        1.27      1.27      1.35      0.04         0.01
  YS02164001YS02001641        1.26      1.27      1.26      0.89         0.85
  
  
  ***************
  Pumping Summary
  ***************
  
  ---------------------------------------------------------------------------------------------------------
                                                  Min       Avg       Max     Total     Power    % Time Off
                        Percent   Number of      Flow      Flow      Flow    Volume     Usage    Pump Curve
  Pump                 Utilized   Start-Ups       LPS       LPS       LPS  10^6 ltr     Kw-hr    Low   High
  ---------------------------------------------------------------------------------------------------------
  CC-R1                   22.13           4      0.00    683.00    683.00     4.354     82.53    0.0   10.0
  CC-R2                   19.77           4      0.00    683.00    683.00     3.889     73.46    0.0   16.4
  CC-S1                   48.64           6      0.00    200.00    200.00     2.801     16.11    0.0    0.0
  CC-S2                   34.01           5      0.00    200.00    200.00     1.959     10.93    0.0    0.0
  JK-R1                    7.57          12      0.00   1000.00   1000.00     2.181     23.78    0.0    0.0
  JK-R2                    4.98           9      0.00   1000.00   1000.00     1.433     13.63    0.0    0.0
  JK-S                    15.20          16      0.00    300.00    300.00     1.313     20.87    0.0    0.0
  

  Analysis begun on:  Tue Apr 15 14:53:34 2025
  Analysis ended on:  Tue Apr 15 14:53:35 2025
  Total elapsed time: 00:00:01