
  EPA STORM WATER MANAGEMENT MODEL - VERSION 5.2 (Build 5.2.4)
  PYSWMM TOOLKIT API - VERSION v1.0 (2023-11-27)
  ------------------------------------------------------------

  WARNING 04: minimum elevation drop used for Conduit WS02004404WS02004405
  WARNING 03: negative offset ignored for Link YS02001904YS02001907
  
  ****************
  Analysis Options
  ****************
  Flow Units ............... LPS
  Process Models:
    Rainfall/Runoff ........ YES
    RDII ................... NO
    Snowmelt ............... NO
    Groundwater ............ NO
    Flow Routing ........... YES
    Ponding Allowed ........ NO
    Water Quality .......... NO
  Infiltration Method ...... HORTON
  Flow Routing Method ...... DYNWAVE
  Surcharge Method ......... EXTRAN
  Starting Date ............ 08/28/2015 08:00:00
  Ending Date .............. 08/28/2015 16:00:00
  Antecedent Dry Days ...... 8.0
  Report Time Step ......... 00:01:00
  Wet Time Step ............ 00:01:00
  Dry Time Step ............ 00:01:00
  Routing Time Step ........ 30.00 sec
  Variable Time Step ....... YES
  Maximum Trials ........... 8
  Number of Threads ........ 4
  Head Tolerance ........... 0.001500 m
  
  
  **************************        Volume         Depth
  Runoff Quantity Continuity     hectare-m            mm
  **************************     ---------       -------
  Total Precipitation ......         3.195        96.326
  Evaporation Loss .........         0.000         0.000
  Infiltration Loss ........         0.105         3.171
  Surface Runoff ...........         3.058        92.180
  Final Storage ............         0.033         0.997
  Continuity Error (%) .....        -0.022
  
  
  **************************        Volume        Volume
  Flow Routing Continuity        hectare-m      10^6 ltr
  **************************     ---------     ---------
  Dry Weather Inflow .......         0.025         0.251
  Wet Weather Inflow .......         3.058        30.581
  Groundwater Inflow .......         0.000         0.000
  RDII Inflow ..............         0.000         0.000
  External Inflow ..........         0.083         0.834
  External Outflow .........         1.808        18.076
  Flooding Loss ............         1.328        13.278
  Evaporation Loss .........         0.000         0.000
  Exfiltration Loss ........         0.000         0.000
  Initial Stored Volume ....         0.243         2.431
  Final Stored Volume ......         0.277         2.772
  Continuity Error (%) .....        -0.087
  
  
  *************************
  Highest Continuity Errors
  *************************
  Node YS02001884 (4.88%)
  Node YS02001583 (-3.60%)
  
  
  ***************************
  Time-Step Critical Elements
  ***************************
  Link WS02006252WS02006251 (50.05%)
  Link WS02006238WS02006235 (13.48%)
  Link WS02004404WS02004405 (9.56%)
  Link WS02006235WS02006234 (8.78%)
  Link YS02001791YS02001793 (6.15%)
  
  
  ********************************
  Highest Flow Instability Indexes
  ********************************
  Link WS02006113WS02006111 (46)
  Link WS02006111WS02006112 (27)
  Link WS02006238WS02006235 (16)
  Link WS02006256WS02006235 (14)
  Link WS02006252WS02006251 (14)
  
  
  *********************************
  Most Frequent Nonconverging Nodes
  *********************************
  Node CC-1 (9.29%)
  Node CC-2 (9.29%)
  Node JK-1 (9.29%)
  Node JK-2 (9.29%)
  Node WSC (9.29%)
  
  
  *************************
  Routing Time Step Summary
  *************************
  Minimum Time Step           :     0.00 sec
  Average Time Step           :     1.83 sec
  Maximum Time Step           :     6.43 sec
  % of Time in Steady State   :     0.00
  Average Iterations per Step :     2.98
  % of Steps Not Converging   :     9.29
  Time Step Frequencies       :
     30.000 - 13.228 sec      :     0.00 %
     13.228 -  5.833 sec      :     6.46 %
      5.833 -  2.572 sec      :    18.52 %
      2.572 -  1.134 sec      :    19.38 %
      1.134 -  0.500 sec      :    55.64 %
  
  
  ***************************
  Subcatchment Runoff Summary
  ***************************
  
  ------------------------------------------------------------------------------------------------------------------------------
                            Total      Total      Total      Total     Imperv       Perv      Total       Total     Peak  Runoff
                           Precip      Runon       Evap      Infil     Runoff     Runoff     Runoff      Runoff   Runoff   Coeff
  Subcatchment                 mm         mm         mm         mm         mm         mm         mm    10^6 ltr      LPS
  ------------------------------------------------------------------------------------------------------------------------------
  sub60                     96.33       0.00       0.00       1.88      83.57       9.68      93.25        1.23   871.34   0.968
  sub61                     96.33       0.00       0.00       2.74      78.83      13.64      92.47        1.70  1213.14   0.960
  sub62                     96.33       0.00       0.00       1.26      87.34       6.45      93.79        2.57  1705.27   0.974
  sub63                     96.33       0.00       0.00       5.07      67.43      22.87      90.30        2.05  1391.47   0.937
  sub64                     96.33       0.00       0.00       2.56      80.68      11.89      92.57        2.22  1409.08   0.961
  sub65                     96.33       0.00       0.00       2.21      82.56      10.31      92.87        2.56  1582.97   0.964
  sub66                     96.33       0.00       0.00       6.32      67.32      21.61      88.93        4.15  2168.21   0.923
  sub67                     96.33       0.00       0.00       1.20      87.39       6.51      93.89        1.75  1297.65   0.975
  sub68                     96.33       0.00       0.00       2.27      81.66      11.22      92.88        2.56  1753.10   0.964
  sub69                     96.33       0.00       0.00       2.05      81.77      12.40      94.17        3.49  2105.06   0.978
  sub70                     96.33       0.00       0.00       6.92      63.41      25.84      89.25        2.58  1217.23   0.927
  sub71                     96.33       0.00       0.00       1.29      87.30       6.42      93.72        2.45  1521.70   0.973
  sub72                     96.33       0.00       0.00       1.15      88.18       5.60      93.78        1.29   747.92   0.974
  
  
  ******************
  Node Depth Summary
  ******************
  
  ---------------------------------------------------------------------------------
                                 Average  Maximum  Maximum  Time of Max    Reported
                                   Depth    Depth      HGL   Occurrence   Max Depth
  Node                 Type       Meters   Meters   Meters  days hr:min      Meters
  ---------------------------------------------------------------------------------
  WS02003060           JUNCTION     0.24     0.38     5.32     0  03:10        0.38
  WS02003066           JUNCTION     0.20     0.30     5.85     0  03:10        0.30
  WS02003067           JUNCTION     0.51     0.70     6.02     0  03:09        0.70
  WS02003069           JUNCTION     0.26     0.43     5.01     0  03:11        0.43
  WS02003072           JUNCTION     0.33     0.50     4.87     0  03:11        0.50
  WS02003073           JUNCTION     0.19     0.30     4.36     0  03:12        0.30
  WS02004401           JUNCTION     0.59     0.85     6.85     0  03:07        0.85
  WS02004402           JUNCTION     0.62     0.88     6.84     0  03:07        0.88
  WS02004403           JUNCTION     0.64     0.89     6.82     0  03:07        0.89
  WS02004404           JUNCTION     0.72     0.96     6.81     0  03:08        0.96
  WS02004405           JUNCTION     0.72     0.96     6.81     0  03:08        0.96
  WS02004406           JUNCTION     0.73     0.96     6.79     0  02:56        0.96
  WS02004407           JUNCTION     0.18     0.30     6.61     0  03:08        0.30
  WS02004409           JUNCTION     0.39     0.67     6.44     0  03:08        0.67
  WS02004410           JUNCTION     0.42     0.68     6.40     0  03:09        0.68
  WS02004411           JUNCTION     0.44     0.69     6.37     0  03:09        0.69
  WS02004412           JUNCTION     0.46     0.70     6.34     0  03:09        0.70
  WS02004413           JUNCTION     0.62     0.86     6.33     0  03:09        0.86
  WS02006109           JUNCTION     0.65     1.20     7.82     0  02:19        1.18
  WS02006110           JUNCTION     0.66     1.24     7.82     0  02:19        1.05
  WS02006111           JUNCTION     0.18     0.29     6.99     0  03:05        0.29
  WS02006112           JUNCTION     0.75     1.07     6.95     0  02:23        1.06
  WS02006113           JUNCTION     0.27     0.46     7.35     0  02:47        0.46
  WS02006115           JUNCTION     0.47     0.75     6.89     0  02:55        0.75
  WS02006116           JUNCTION     0.56     0.83     6.87     0  03:07        0.83
  WS02006228           JUNCTION     0.65     1.27     7.92     0  02:19        1.27
  WS02006229           JUNCTION     0.62     1.31     8.01     0  02:19        1.31
  WS02006230           JUNCTION     0.62     1.45     8.19     0  02:19        1.32
  WS02006231           JUNCTION     0.42     1.25     8.37     0  02:19        1.25
  WS02006232           JUNCTION     0.56     2.18     9.22     0  01:49        1.53
  WS02006234           JUNCTION     0.48     1.58     8.74     0  02:19        1.58
  WS02006235           JUNCTION     0.52     1.64     8.81     0  02:19        1.64
  WS02006238           JUNCTION     0.55     2.15     9.29     0  01:50        2.15
  WS02006239           JUNCTION     0.52     2.03     9.24     0  01:50        2.03
  WS02006240           JUNCTION     0.48     2.10     9.39     0  01:50        2.10
  WS02006242           JUNCTION     0.55     1.55     8.82     0  01:50        1.55
  WS02006243           JUNCTION     0.46     1.48     8.90     0  01:50        1.34
  WS02006245           JUNCTION     0.46     1.38     8.87     0  02:18        1.25
  WS02006247           JUNCTION     0.48     1.31     8.81     0  02:18        1.22
  WS02006248           JUNCTION     0.44     1.10     8.69     0  01:57        1.10
  WS02006249           JUNCTION     0.48     1.09     8.69     0  01:57        1.09
  WS02006251           JUNCTION     0.48     1.48     9.15     0  01:57        1.13
  WS02006252           JUNCTION     0.36     1.50     9.74     0  00:00        0.69
  WS02006256           JUNCTION     1.01     2.35     9.28     0  00:00        2.35
  WSF200               JUNCTION     0.17     0.29     5.52     0  03:10        0.29
  YS02001580           JUNCTION     0.12     1.05     9.59     0  01:54        1.05
  YS02001583           JUNCTION     0.15     1.14     9.64     0  01:54        1.14
  YS02001586           JUNCTION     0.24     1.13     9.30     0  01:54        1.13
  YS02001590           JUNCTION     0.34     1.38     9.24     0  01:54        1.37
  YS02001593           JUNCTION     0.27     1.32     9.18     0  01:54        1.31
  YS02001596           JUNCTION     0.37     1.68     9.10     0  01:54        1.65
  YS02001600           JUNCTION     0.45     1.87     9.00     0  01:50        1.87
  YS02001601           JUNCTION     0.64     2.06     8.90     0  01:50        2.06
  YS02001602           JUNCTION     0.55     1.87     8.77     0  01:54        1.87
  YS02001605           JUNCTION     0.51     1.78     8.68     0  02:16        1.78
  YS02001607           JUNCTION     0.49     1.66     8.50     0  02:46        1.66
  YS02001610           JUNCTION     0.54     1.68     8.48     0  02:00        1.68
  YS02001613           JUNCTION     0.50     1.70     8.54     0  02:07        1.70
  YS02001616           JUNCTION     0.43     1.61     8.52     0  02:07        1.61
  YS02001619           JUNCTION     0.40     1.61     8.54     0  02:07        1.61
  YS02001622           JUNCTION     0.39     1.60     8.50     0  02:16        1.58
  YS02001625           JUNCTION     0.66     1.78     8.38     0  02:00        1.78
  YS02001629           JUNCTION     0.52     1.85     8.40     0  02:01        1.85
  YS02001633           JUNCTION     0.60     2.08     8.53     0  02:07        2.08
  YS02001641           JUNCTION     0.58     2.01     8.45     0  02:07        1.98
  YS02001644           JUNCTION     0.57     1.92     8.35     0  02:04        1.92
  YS02001647           JUNCTION     0.36     1.90     8.51     0  02:07        1.90
  YS02001649           JUNCTION     0.41     2.05     8.44     0  02:07        2.05
  YS02001652           JUNCTION     0.29     2.16     8.76     0  02:07        2.16
  YS02001655           JUNCTION     0.23     2.20     9.05     0  02:07        2.20
  YS02001658           JUNCTION     0.17     1.58     8.73     0  02:13        1.57
  YS02001661           JUNCTION     0.19     1.42     8.83     0  02:13        1.41
  YS02001664           JUNCTION     0.07     1.00     8.92     0  02:13        0.98
  YS02001745           JUNCTION     0.10     1.04     8.55     0  02:11        1.03
  YS02001748           JUNCTION     0.16     1.95     9.03     0  02:05        1.42
  YS02001751           JUNCTION     0.20     2.20     9.08     0  02:07        2.20
  YS02001754           JUNCTION     0.26     2.20     8.81     0  02:07        2.20
  YS02001757           JUNCTION     0.44     2.21     8.47     0  02:07        2.21
  YS02001759           JUNCTION     0.37     2.21     8.57     0  02:07        2.21
  YS02001762           JUNCTION     0.36     2.15     8.55     0  02:07        2.15
  YS02001765           JUNCTION     0.34     2.10     8.55     0  02:07        2.10
  YS02001767           JUNCTION     0.34     2.03     8.52     0  02:07        2.03
  YS02001770           JUNCTION     0.35     1.95     8.44     0  02:01        1.95
  YS02001774           JUNCTION     0.41     2.05     8.47     0  02:01        2.05
  YS02001779           JUNCTION     0.24     1.68     8.37     0  02:01        1.68
  YS02001783           JUNCTION     0.28     1.40     7.54     0  02:07        1.40
  YS02001784           JUNCTION     0.29     1.39     7.46     0  02:07        1.39
  YS02001786           JUNCTION     0.24     0.93     6.96     0  02:07        0.88
  YS02001788           JUNCTION     0.17     0.63     6.61     0  02:12        0.63
  YS02001790           JUNCTION     0.20     0.74     6.38     0  02:12        0.72
  YS02001791           JUNCTION     0.13     0.45     5.92     0  02:13        0.44
  YS02001793           JUNCTION     0.07     0.27     5.11     0  02:18        0.27
  YS02001882           JUNCTION     0.35     1.83     8.55     0  02:07        1.83
  YS02001884           JUNCTION     0.44     1.83     8.45     0  02:11        1.83
  YS02001887           JUNCTION     0.52     2.00     8.54     0  02:07        2.00
  YS02001890           JUNCTION     0.55     1.81     8.32     0  02:00        1.81
  YS02001895           JUNCTION     0.32     1.58     8.33     0  02:07        1.56
  YS02001898           JUNCTION     0.33     1.60     8.33     0  02:07        1.57
  YS02001901           JUNCTION     0.44     1.70     8.31     0  02:07        1.68
  YS02001904           JUNCTION     0.42     1.65     8.28     0  02:07        1.64
  YS02001907           JUNCTION     0.75     1.96     8.25     0  02:00        1.96
  YS02001910           JUNCTION     0.55     2.10     8.61     0  02:07        2.10
  YS02001915           JUNCTION     0.36     2.00     8.72     0  02:07        2.00
  YS02001918           JUNCTION     0.21     1.81     8.88     0  02:02        1.72
  YS02001920           JUNCTION     0.29     2.02     9.03     0  02:02        1.81
  YS02001923           JUNCTION     0.16     1.89     9.15     0  02:02        1.59
  YS02001926           JUNCTION     0.19     1.75     9.20     0  02:02        1.44
  YS02001929           JUNCTION     0.12     1.72     9.41     0  02:02        1.22
  YS02006553           JUNCTION     0.75     2.19     8.47     0  02:07        2.19
  YS02006556           JUNCTION     0.72     2.39     8.70     0  02:07        2.39
  YS02006558           JUNCTION     0.76     2.50     8.77     0  02:07        2.50
  YS02006561           JUNCTION     0.17     1.05     7.71     0  02:07        0.92
  YS02163301           JUNCTION     0.54     2.03     8.55     0  02:07        2.03
  YS02163601           JUNCTION     0.64     2.08     8.48     0  02:07        2.08
  YS02164001           JUNCTION     0.57     2.04     8.49     0  02:07        1.98
  CC-1                 OUTFALL      0.00     0.00     0.00     0  00:00        0.00
  CC-2                 OUTFALL      0.00     0.00     0.00     0  00:00        0.00
  JK-1                 OUTFALL      0.00     0.00     0.00     0  00:00        0.00
  JK-2                 OUTFALL      0.00     0.00     0.00     0  00:00        0.00
  WSC                  OUTFALL      0.19     0.30     0.97     0  03:12        0.30
  CC-storage           STORAGE      0.95     1.87     7.37     0  02:43        1.87
  JK-storage           STORAGE      2.69     4.22     5.02     0  02:35        4.22
  
  
  *******************
  Node Inflow Summary
  *******************
  
  -------------------------------------------------------------------------------------------------
                                  Maximum  Maximum                  Lateral       Total        Flow
                                  Lateral    Total  Time of Max      Inflow      Inflow     Balance
                                   Inflow   Inflow   Occurrence      Volume      Volume       Error
  Node                 Type           LPS      LPS  days hr:min    10^6 ltr    10^6 ltr     Percent
  -------------------------------------------------------------------------------------------------
  WS02003060           JUNCTION     16.53   553.37     0  03:10       0.476        5.96       0.034
  WS02003066           JUNCTION      0.00   536.64     0  03:10           0        5.48       0.023
  WS02003067           JUNCTION      0.00   536.59     0  03:09           0        5.49       0.073
  WS02003069           JUNCTION      0.32   553.51     0  03:10     0.00922        5.96       0.060
  WS02003072           JUNCTION      0.00   553.27     0  03:11           0        5.96       0.109
  WS02003073           JUNCTION      1.82   555.00     0  03:12      0.0524        6.01       0.087
  WS02004401           JUNCTION      0.00   539.11     0  02:55           0        5.58       0.179
  WS02004402           JUNCTION      0.00   538.92     0  02:55           0        5.57       0.181
  WS02004403           JUNCTION      0.00   538.29     0  03:07           0        5.56       0.178
  WS02004404           JUNCTION      0.16   538.00     0  02:56     0.00467        5.56       0.152
  WS02004405           JUNCTION      0.04   538.04     0  02:56      0.0011        5.55       0.216
  WS02004406           JUNCTION      0.00   538.21     0  02:56           0        5.54       0.371
  WS02004407           JUNCTION      0.00   537.50     0  03:08           0        5.52       0.017
  WS02004409           JUNCTION      0.00   537.28     0  03:08           0        5.52       0.040
  WS02004410           JUNCTION      0.00   537.11     0  03:08           0        5.51       0.073
  WS02004411           JUNCTION      0.00   536.82     0  03:09           0        5.51       0.095
  WS02004412           JUNCTION      0.00   536.78     0  03:09           0        5.51       0.129
  WS02004413           JUNCTION      0.00   536.77     0  03:09           0         5.5       0.235
  WS02006109           JUNCTION      1.23   577.76     0  02:19      0.0354        5.63       0.155
  WS02006110           JUNCTION      0.00   579.55     0  02:19           0        5.62       0.110
  WS02006111           JUNCTION      0.00   561.30     0  02:47           0        5.61       0.011
  WS02006112           JUNCTION      0.00   543.29     0  03:06           0        5.61       0.357
  WS02006113           JUNCTION      0.00   578.42     0  02:19           0        5.62       0.030
  WS02006115           JUNCTION      0.00   549.41     0  02:19           0        5.59       0.113
  WS02006116           JUNCTION      0.00   540.60     0  02:55           0        5.59       0.074
  WS02006228           JUNCTION      0.00   574.02     0  02:19           0         5.6       0.059
  WS02006229           JUNCTION      0.00   573.15     0  02:19           0         5.6       0.101
  WS02006230           JUNCTION     10.28   586.20     0  02:10       0.296        5.61       0.085
  WS02006231           JUNCTION      0.00   575.90     0  02:10           0        5.31      -0.039
  WS02006232           JUNCTION      0.00   574.70     0  02:10           0        5.32       0.212
  WS02006234           JUNCTION      0.00   570.53     0  02:10           0        5.31      -0.149
  WS02006235           JUNCTION      0.00   562.95     0  02:10           0        5.38       0.251
  WS02006238           JUNCTION      0.00   424.34     0  02:20           0        4.39      -0.128
  WS02006239           JUNCTION      0.00   423.32     0  02:20           0        4.35      -0.121
  WS02006240           JUNCTION      0.00   419.64     0  02:20           0        4.33       0.009
  WS02006242           JUNCTION      0.00   419.34     0  02:20           0        4.32       0.105
  WS02006243           JUNCTION      0.00   419.80     0  02:20           0        4.31       0.077
  WS02006245           JUNCTION      0.00   420.33     0  02:20           0        4.32       0.368
  WS02006247           JUNCTION      0.00   420.44     0  02:20           0        4.32       0.031
  WS02006248           JUNCTION      0.00   421.36     0  02:20           0        4.32       0.042
  WS02006249           JUNCTION      0.00   481.73     0  01:45           0        4.56       0.349
  WS02006251           JUNCTION      0.08   407.32     0  01:57     0.00222        4.55      -0.021
  WS02006252           JUNCTION      0.00   400.00     0  00:00           0        4.55      -0.065
  WS02006256           JUNCTION      0.00   300.00     0  00:00           0        1.46      -0.554
  WSF200               JUNCTION      0.00   536.68     0  03:10           0        5.48       0.007
  YS02001580           JUNCTION      0.00    78.83     0  01:54           0     0.00419      -1.127
  YS02001583           JUNCTION      0.00   106.76     0  01:54           0      0.0158      -3.471
  YS02001586           JUNCTION   1217.23  1217.23     0  02:15        2.58        2.59       0.033
  YS02001590           JUNCTION      0.00   318.14     0  02:07           0        1.66      -0.028
  YS02001593           JUNCTION      0.00   318.00     0  02:14           0        1.66      -0.007
  YS02001596           JUNCTION      0.00   318.07     0  02:10           0        1.66      -0.005
  YS02001600           JUNCTION      0.00   317.99     0  02:34           0        1.66       0.013
  YS02001601           JUNCTION   2105.06  2422.45     0  02:14        3.49        5.15       0.008
  YS02001602           JUNCTION      0.00   496.79     0  01:54           0         2.7       0.013
  YS02001605           JUNCTION      0.00   496.71     0  01:54           0        2.52       0.020
  YS02001607           JUNCTION      0.00   496.50     0  01:54           0        2.52       0.074
  YS02001610           JUNCTION      0.00   953.75     0  02:18           0        3.14       0.062
  YS02001613           JUNCTION      0.00   616.90     0  02:18           0        2.43       0.055
  YS02001616           JUNCTION      0.00   616.98     0  02:18           0        2.43       0.007
  YS02001619           JUNCTION   2168.21  2168.21     0  02:14        4.15        5.96      -0.005
  YS02001622           JUNCTION      0.00  1053.89     0  02:15           0        5.17      -0.002
  YS02001625           JUNCTION      0.00  1505.34     0  02:18           0        5.63       0.170
  YS02001629           JUNCTION      0.00   929.14     0  01:59           0        4.09       0.007
  YS02001633           JUNCTION   1583.17  1583.17     0  02:14        2.56        6.04       0.054
  YS02001641           JUNCTION      0.00  1343.83     0  02:00           0        5.43       0.052
  YS02001644           JUNCTION   1409.12  2652.11     0  02:13        2.23        7.76       0.041
  YS02001647           JUNCTION      0.00  1714.91     0  02:00           0        6.36       0.003
  YS02001649           JUNCTION      0.00  1970.60     0  02:01           0         8.3       0.000
  YS02001652           JUNCTION      0.00  1404.17     0  02:13           0        2.05      -0.057
  YS02001655           JUNCTION      0.15  1402.94     0  02:13     0.00443        2.05       0.021
  YS02001658           JUNCTION      0.00  1402.56     0  02:13           0        2.05      -0.014
  YS02001661           JUNCTION      0.00  1401.85     0  02:13           0        2.05       0.010
  YS02001664           JUNCTION   1391.47  1391.47     0  02:13        2.05        2.05      -0.010
  YS02001745           JUNCTION    871.35   871.35     0  02:13        1.23        1.23       0.121
  YS02001748           JUNCTION      0.04   876.95     0  02:13      0.0013        1.23      -0.190
  YS02001751           JUNCTION      0.01   876.74     0  02:13    0.000317        1.23       0.040
  YS02001754           JUNCTION      0.26   877.31     0  02:13     0.00749        1.24      -0.102
  YS02001757           JUNCTION      0.00  3172.67     0  02:06           0          13       0.027
  YS02001759           JUNCTION   1213.18  1382.52     0  02:12         1.7        3.54      -0.008
  YS02001762           JUNCTION      0.00   723.58     0  02:06           0        1.85      -0.002
  YS02001765           JUNCTION      0.00   723.91     0  02:06           0        1.85      -0.000
  YS02001767           JUNCTION      0.54   724.20     0  02:06      0.0154        1.84       0.004
  YS02001770           JUNCTION   1705.43  1705.43     0  02:13        2.57        2.62      -0.013
  YS02001774           JUNCTION      0.00   851.94     0  02:16           0       0.653       0.158
  YS02001779           JUNCTION      0.01   851.65     0  02:16    0.000144       0.607      -0.060
  YS02001783           JUNCTION      0.00  1175.20     0  02:13           0        5.07       0.003
  YS02001784           JUNCTION      1.06  1176.61     0  02:13      0.0305         5.1       0.009
  YS02001786           JUNCTION      0.06  1176.64     0  02:13     0.00162         5.1       0.012
  YS02001788           JUNCTION      0.07  1177.55     0  02:11     0.00204        5.11       0.006
  YS02001790           JUNCTION      0.15  1186.86     0  02:11     0.00446        5.11       0.019
  YS02001791           JUNCTION      0.00  1312.96     0  02:13           0        5.11      -0.028
  YS02001793           JUNCTION      0.00  1262.75     0  02:14           0        5.11       0.005
  YS02001882           JUNCTION      0.00    29.04     0  01:58           0      0.0129       4.653
  YS02001884           JUNCTION      0.00    34.85     0  01:56           0       0.049       5.128
  YS02001887           JUNCTION   1298.10  1298.10     0  02:13        1.76        1.79       0.241
  YS02001890           JUNCTION      0.00  1298.35     0  02:13           0        1.75       0.276
  YS02001895           JUNCTION      0.00   522.15     0  02:07           0        1.42       0.125
  YS02001898           JUNCTION      0.00   519.03     0  02:07           0        1.42      -0.002
  YS02001901           JUNCTION      0.00   518.25     0  02:20           0        1.42       0.228
  YS02001904           JUNCTION      0.00   518.08     0  02:11           0        1.43       0.189
  YS02001907           JUNCTION      0.00  3092.79     0  02:13           0        5.36       0.322
  YS02001910           JUNCTION      0.00  1993.17     0  02:15           0        3.77       0.183
  YS02001915           JUNCTION   1521.72  2272.57     0  02:14        2.45        3.85       0.039
  YS02001918           JUNCTION      0.00   754.03     0  02:14           0        1.41       0.003
  YS02001920           JUNCTION      2.87   753.71     0  02:14      0.0827         1.4       0.061
  YS02001923           JUNCTION      0.04   748.97     0  02:14     0.00109        1.31      -0.010
  YS02001926           JUNCTION      0.05   748.22     0  02:14      0.0015         1.3       0.019
  YS02001929           JUNCTION    747.92   747.92     0  02:14        1.29        1.29      -0.006
  YS02006553           JUNCTION      0.00   803.02     0  02:34           0        2.87       0.415
  YS02006556           JUNCTION      0.00   803.45     0  02:34           0        2.88       0.267
  YS02006558           JUNCTION   1753.98  1753.98     0  02:13        2.58        5.27       0.066
  YS02006561           JUNCTION      0.00  1175.23     0  02:13           0        5.07      -0.000
  YS02163301           JUNCTION      0.00   930.50     0  01:59           0        4.09       0.030
  YS02163601           JUNCTION      0.11  1344.02     0  02:00     0.00317        5.42       0.088
  YS02164001           JUNCTION      0.00  1344.08     0  02:00           0        5.42       0.038
  CC-1                 OUTFALL       0.00   683.00     0  00:00           0        4.83       0.000
  CC-2                 OUTFALL       0.00   683.00     0  00:00           0        3.62       0.000
  JK-1                 OUTFALL       0.00  1000.00     0  00:00           0        1.95       0.000
  JK-2                 OUTFALL       0.00  1000.00     0  00:00           0        1.68       0.000
  WSC                  OUTFALL       0.00   554.91     0  03:12           0           6       0.000
  CC-storage           STORAGE       0.00  3173.07     0  02:06           0        15.2      -0.080
  JK-storage           STORAGE       0.00  1263.19     0  02:14           0        5.26       0.063
  
  
  **********************
  Node Surcharge Summary
  **********************
  
  Surcharging occurs when water rises above the top of the highest conduit.
  ---------------------------------------------------------------------
                                               Max. Height   Min. Depth
                                   Hours       Above Crown    Below Rim
  Node                 Type      Surcharged         Meters       Meters
  ---------------------------------------------------------------------
  WS02006109           JUNCTION        2.21          0.378        1.442
  WS02006110           JUNCTION        0.77          0.325        1.525
  WS02006112           JUNCTION        0.76          0.071        1.609
  WS02006228           JUNCTION        2.20          0.440        1.760
  WS02006229           JUNCTION        2.22          0.514        1.936
  WS02006230           JUNCTION        0.79          0.368        1.202
  WS02006231           JUNCTION        0.86          0.539        0.991
  WS02006232           JUNCTION        2.34          1.480        0.000
  WS02006234           JUNCTION        1.19          0.859        0.381
  WS02006235           JUNCTION        2.21          0.932        0.358
  WS02006238           JUNCTION        2.28          1.430        0.000
  WS02006239           JUNCTION        2.21          1.290        0.000
  WS02006240           JUNCTION        2.22          1.390        0.000
  WS02006242           JUNCTION        2.31          0.820        0.000
  WS02006243           JUNCTION        2.12          0.770        0.000
  WS02006245           JUNCTION        2.11          0.671        0.179
  WS02006247           JUNCTION        2.13          0.603        0.157
  WS02006248           JUNCTION        2.10          0.380        0.000
  WS02006249           JUNCTION        2.12          0.390        0.000
  WS02006251           JUNCTION        0.89          0.452        0.728
  WS02006252           JUNCTION        2.42          1.100        0.000
  WS02006256           JUNCTION        6.28          2.050        0.000
  YS02001580           JUNCTION        0.90          0.450        0.000
  YS02001583           JUNCTION        0.91          0.500        0.000
  YS02001586           JUNCTION        1.07          0.510        0.000
  YS02001590           JUNCTION        1.16          0.732        0.018
  YS02001593           JUNCTION        1.16          0.700        0.140
  YS02001596           JUNCTION        1.28          0.951        0.119
  YS02001600           JUNCTION        1.43          1.190        0.000
  YS02001601           JUNCTION        1.75          1.440        0.000
  YS02001602           JUNCTION        1.66          1.270        0.000
  YS02001605           JUNCTION        1.61          1.180        0.000
  YS02001607           JUNCTION        1.16          0.656        0.024
  YS02001610           JUNCTION        1.18          0.680        0.000
  YS02001613           JUNCTION        1.15          0.700        0.000
  YS02001616           JUNCTION        1.12          0.610        0.000
  YS02001619           JUNCTION        1.10          0.610        0.000
  YS02001622           JUNCTION        1.10          0.597        0.023
  YS02001625           JUNCTION        1.27          0.780        0.000
  YS02001629           JUNCTION        1.03          0.470        0.000
  YS02001633           JUNCTION        1.30          1.060        0.000
  YS02001641           JUNCTION        1.25          1.009        0.091
  YS02001644           JUNCTION        1.22          0.920        0.000
  YS02001647           JUNCTION        0.99          0.900        0.000
  YS02001649           JUNCTION        1.10          1.050        0.000
  YS02001652           JUNCTION        0.92          1.130        0.000
  YS02001655           JUNCTION        0.72          1.200        0.000
  YS02001658           JUNCTION        0.42          0.584        0.716
  YS02001661           JUNCTION        0.16          0.352        1.038
  YS02001745           JUNCTION        0.03          0.035        1.315
  YS02001748           JUNCTION        0.34          0.869        0.321
  YS02001751           JUNCTION        0.57          1.200        0.000
  YS02001754           JUNCTION        0.83          1.150        0.000
  YS02001757           JUNCTION        1.16          1.210        0.000
  YS02001759           JUNCTION        1.08          1.210        0.000
  YS02001762           JUNCTION        1.05          1.150        0.000
  YS02001765           JUNCTION        1.02          1.100        0.000
  YS02001767           JUNCTION        0.99          1.030        0.000
  YS02001770           JUNCTION        0.97          0.920        0.000
  YS02001774           JUNCTION        1.04          1.050        0.000
  YS02001779           JUNCTION        0.81          0.680        0.000
  YS02001783           JUNCTION        0.75          0.599        1.001
  YS02001784           JUNCTION        0.72          0.593        0.897
  YS02001786           JUNCTION        0.59          0.128        1.302
  YS02001882           JUNCTION        0.68          0.830        0.000
  YS02001884           JUNCTION        0.70          0.768        0.102
  YS02001887           JUNCTION        0.74          0.950        0.000
  YS02001890           JUNCTION        0.76          0.760        0.000
  YS02001895           JUNCTION        0.67          0.580        0.170
  YS02001898           JUNCTION        0.67          0.566        0.174
  YS02001901           JUNCTION        0.72          0.704        0.166
  YS02001904           JUNCTION        0.71          0.654        0.196
  YS02001907           JUNCTION        1.06          0.950        0.000
  YS02001910           JUNCTION        0.79          1.100        0.000
  YS02001915           JUNCTION        0.68          1.000        0.000
  YS02001918           JUNCTION        0.58          0.810        0.000
  YS02001920           JUNCTION        0.60          1.019        0.121
  YS02001923           JUNCTION        0.24          0.675        0.145
  YS02001926           JUNCTION        0.27          0.753        0.147
  YS02001929           JUNCTION        0.13          0.720        0.060
  YS02006553           JUNCTION        1.08          1.190        0.000
  YS02006556           JUNCTION        0.91          1.350        0.000
  YS02006558           JUNCTION        0.89          1.400        0.000
  YS02006561           JUNCTION        0.55          0.247        0.903
  YS02163301           JUNCTION        1.28          1.030        0.000
  YS02163601           JUNCTION        1.34          1.080        0.000
  YS02164001           JUNCTION        1.25          1.036        0.064
  
  
  *********************
  Node Flooding Summary
  *********************
  
  Flooding refers to all water that overflows a node, whether it ponds or not.
  --------------------------------------------------------------------------
                                                             Total   Maximum
                                 Maximum   Time of Max       Flood    Ponded
                        Hours       Rate    Occurrence      Volume     Depth
  Node                 Flooded       LPS   days hr:min    10^6 ltr    Meters
  --------------------------------------------------------------------------
  WS02006232              0.01     61.86      0  01:49       0.000     0.000
  WS02006238              0.01     10.67      0  01:50       0.000     0.000
  WS02006239              0.01      5.90      0  01:50       0.000     0.000
  WS02006240              0.01     14.06      0  01:50       0.000     0.000
  WS02006242              0.01     38.64      0  01:50       0.000     0.000
  WS02006243              0.01     34.90      0  01:50       0.000     0.000
  WS02006248              0.01     14.96      0  02:18       0.000     0.000
  WS02006249              0.87    113.95      0  01:58       0.217     0.000
  WS02006252              0.01    245.63      0  00:00       0.000     0.000
  WS02006256              1.35    293.19      0  00:00       0.441     0.000
  YS02001580              0.01     69.35      0  01:54       0.000     0.000
  YS02001583              0.01     36.58      0  01:54       0.000     0.000
  YS02001586              0.73    899.41      0  02:15       0.916     0.000
  YS02001600              0.01      0.50      0  01:54       0.000     0.000
  YS02001601              0.99   2024.47      0  02:14       2.451     0.000
  YS02001602              0.83     61.97      0  02:11       0.173     0.000
  YS02001605              0.01      0.17      0  02:16       0.000     0.000
  YS02001610              0.75    953.18      0  02:18       1.330     0.000
  YS02001613              0.01      0.06      0  02:07       0.000     0.000
  YS02001616              0.07     13.98      0  02:07       0.000     0.000
  YS02001619              0.17    503.22      0  02:14       0.168     0.000
  YS02001625              0.72   1505.15      0  02:18       2.144     0.000
  YS02001629              0.28    396.78      0  02:14       0.152     0.000
  YS02001633              0.01      0.64      0  02:07       0.000     0.000
  YS02001644              0.36   2652.01      0  02:13       1.509     0.000
  YS02001647              0.01      0.30      0  02:07       0.000     0.000
  YS02001649              0.01      0.54      0  02:07       0.000     0.000
  YS02001652              0.01      0.40      0  02:07       0.000     0.000
  YS02001655              0.01      0.88      0  02:07       0.000     0.000
  YS02001751              0.01      0.74      0  02:07       0.000     0.000
  YS02001754              0.01      0.64      0  02:07       0.000     0.000
  YS02001757              0.01      0.85      0  02:07       0.000     0.000
  YS02001759              0.01      0.75      0  02:07       0.000     0.000
  YS02001762              0.01      0.28      0  02:07       0.000     0.000
  YS02001765              0.01      0.35      0  02:07       0.000     0.000
  YS02001767              0.01      0.37      0  02:07       0.000     0.000
  YS02001770              0.12    701.83      0  02:13       0.162     0.000
  YS02001774              0.01      4.89      0  02:01       0.000     0.000
  YS02001779              0.32    851.40      0  02:16       0.587     0.000
  YS02001882              0.01      0.09      0  02:07       0.000     0.000
  YS02001887              0.01      0.02      0  02:07       0.000     0.000
  YS02001890              0.29    781.20      0  02:13       0.325     0.000
  YS02001907              0.52   3092.17      0  02:13       2.649     0.000
  YS02001910              0.01      0.08      0  02:07       0.000     0.000
  YS02001915              0.08    280.06      0  02:14       0.051     0.000
  YS02001918              0.01     40.93      0  02:02       0.000     0.000
  YS02006553              0.01      0.16      0  02:07       0.000     0.000
  YS02006556              0.01      0.02      0  02:07       0.000     0.000
  YS02006558              0.01      0.67      0  02:07       0.000     0.000
  YS02163301              0.01      0.10      0  02:07       0.000     0.000
  YS02163601              0.01     12.56      0  02:07       0.000     0.000
  
  
  **********************
  Storage Volume Summary
  **********************
  
  ------------------------------------------------------------------------------------------------
                         Average    Avg   Evap  Exfil     Maximum    Max    Time of Max    Maximum
                          Volume   Pcnt   Pcnt   Pcnt      Volume   Pcnt     Occurrence    Outflow
  Storage Unit           1000 m³   Full   Loss   Loss     1000 m³   Full    days hr:min        LPS
  ------------------------------------------------------------------------------------------------
  CC-storage               2.657   41.4    0.0    0.0       5.226   81.5       0  02:43    1783.53
  JK-storage               0.135   46.4    0.0    0.0       0.212   72.7       0  02:35    2300.00
  
  
  ***********************
  Outfall Loading Summary
  ***********************
  
  -----------------------------------------------------------
                         Flow       Avg       Max       Total
                         Freq      Flow      Flow      Volume
  Outfall Node           Pcnt       LPS       LPS    10^6 ltr
  -----------------------------------------------------------
  CC-1                  29.08    683.00    683.00       4.825
  CC-2                  17.46    683.00    683.00       3.617
  JK-1                   9.27   1000.00   1000.00       1.954
  JK-2                   7.39   1000.00   1000.00       1.678
  WSC                   99.96    255.29    554.91       6.000
  -----------------------------------------------------------
  System                32.63   3621.29   3920.68      18.076
  
  
  ********************
  Link Flow Summary
  ********************
  
  -----------------------------------------------------------------------------
                                 Maximum  Time of Max   Maximum    Max/    Max/
                                  |Flow|   Occurrence   |Veloc|    Full    Full
  Link                 Type          LPS  days hr:min     m/sec    Flow   Depth
  -----------------------------------------------------------------------------
  1                    CONDUIT    554.91     0  03:12      2.83    0.19    0.30
  WS02003060WS02003069 CONDUIT    553.19     0  03:10      1.64    0.22    0.34
  WS02003066WSF200     CONDUIT    536.68     0  03:10      2.85    0.09    0.22
  WS02003067WS02003066 CONDUIT    536.64     0  03:10      1.21    0.17    0.42
  WS02003069WS02003072 CONDUIT    553.27     0  03:11      1.37    0.27    0.39
  WS02003072WS02003073 CONDUIT    553.18     0  03:12      1.44    1.19    0.37
  WS02004401WS02004402 CONDUIT    538.92     0  02:55      1.23    0.65    0.86
  WS02004402WS02004403 CONDUIT    538.29     0  03:07      1.24    0.77    0.88
  WS02004403WS02004404 CONDUIT    537.84     0  02:56      1.17    0.39    0.93
  WS02004404WS02004405 CONDUIT    538.00     0  02:56      1.43    5.27    0.96
  WS02004405WS02004406 CONDUIT    538.21     0  02:56      1.39    1.06    0.96
  WS02004406WS02004407 CONDUIT    537.50     0  03:08      1.04    0.24    0.63
  WS02004407WS02004409 CONDUIT    537.28     0  03:08      1.47    0.19    0.48
  WS02004409WS02004410 CONDUIT    537.11     0  03:08      0.96    0.69    0.67
  WS02004410WS02004411 CONDUIT    536.82     0  03:09      0.93    0.73    0.69
  WS02004411WS02004412 CONDUIT    536.78     0  03:09      0.92    0.76    0.69
  WS02004412WS02004413 CONDUIT    536.77     0  03:09      0.88    0.36    0.78
  WS02004413WS02003067 CONDUIT    536.59     0  03:09      1.11    0.23    0.59
  WS02006109WS02006110 CONDUIT    579.55     0  02:19      1.15    1.11    1.00
  WS02006110WS02006113 CONDUIT    578.42     0  02:19      1.40    0.53    0.78
  WS02006111WS02006112 CONDUIT    543.29     0  03:06      1.96    0.26    0.67
  WS02006112WS02006115 CONDUIT    549.41     0  02:19      0.78    0.32    0.87
  WS02006113WS02006111 CONDUIT    561.30     0  02:47      2.47    0.67    0.46
  WS02006115WS02006116 CONDUIT    540.60     0  02:55      1.19    0.69    0.76
  WS02006116WS02004401 CONDUIT    539.11     0  02:55      1.22    0.74    0.84
  WS02006228WS02006109 CONDUIT    576.53     0  02:19      1.15    2.52    1.00
  WS02006229WS02006228 CONDUIT    574.02     0  02:19      1.14    1.90    1.00
  WS02006230WS02006229 CONDUIT    573.15     0  02:19      1.49   12.76    1.00
  WS02006231WS02006230 CONDUIT    575.92     0  02:10      1.58    8.74    1.00
  WS02006232WS02006231 CONDUIT    575.90     0  02:10      1.51    1.21    1.00
  WS02006234WS02006232 CONDUIT    574.70     0  02:10      1.49    1.16    1.00
  WS02006235WS02006234 CONDUIT    570.53     0  02:10      1.49    6.02    1.00
  WS02006238WS02006235 CONDUIT    423.43     0  02:20      1.45    0.95    1.00
  WS02006239WS02006238 CONDUIT    424.34     0  02:20      1.10    1.36    1.00
  WS02006240WS02006239 CONDUIT    423.32     0  02:20      1.24    1.33    1.00
  WS02006242WS02006240 CONDUIT    419.64     0  02:20      1.13    1.67    1.00
  WS02006243WS02006242 CONDUIT    419.34     0  02:20      1.40    0.90    1.00
  WS02006245WS02006243 CONDUIT    419.80     0  02:20      1.45    1.24    1.00
  WS02006247WS02006245 CONDUIT    420.33     0  02:20      1.43    3.33    1.00
  WS02006248WS02006247 CONDUIT    420.44     0  02:20      1.44    0.92    1.00
  WS02006249WS02006248 CONDUIT    421.36     0  02:20      1.36    2.31    1.00
  WS02006251WS02006249 CONDUIT    481.73     0  01:45      1.99    1.39    1.00
  WS02006252WS02006251 CONDUIT    407.24     0  01:57     25.30    1.49    1.00
  WS02006256WS02006235 CONDUIT    288.91     0  00:00      4.23    3.06    1.00
  WSF200WS02003060     CONDUIT    536.84     0  03:10      2.06    0.12    0.28
  YS02001580YS02001583 CONDUIT     78.83     0  01:54      0.50    0.31    1.00
  YS02001583YS02001586 CONDUIT    106.76     0  01:54      0.47    0.16    1.00
  YS02001586YS02001590 CONDUIT    318.14     0  02:07      1.24    0.56    1.00
  YS02001590YS02001593 CONDUIT    318.00     0  02:14      1.12    2.00    1.00
  YS02001593YS02001596 CONDUIT    318.07     0  02:10      1.73    0.50    1.00
  YS02001596YS02001600 CONDUIT    317.99     0  02:34      1.28    0.62    1.00
  YS02001600YS02001601 CONDUIT    317.98     0  02:16      1.12    0.55    1.00
  YS02001601YS02001602 CONDUIT    496.79     0  01:54      1.76    1.79    1.00
  YS02001602YS02001605 CONDUIT    496.71     0  01:54      1.76   10.51    1.00
  YS02001605YS02001607 CONDUIT    496.50     0  01:54      1.76    2.72    1.00
  YS02001607YS02001610 CONDUIT    496.56     0  01:54      0.63    0.47    1.00
  YS02001610YS02001613 CONDUIT    617.37     0  02:18      0.79    0.71    1.00
  YS02001613YS02001616 CONDUIT    616.90     0  02:18      0.79    0.53    1.00
  YS02001616YS02001619 CONDUIT    616.98     0  02:18      0.79    1.07    1.00
  YS02001619YS02001622 CONDUIT   1053.89     0  02:15      1.34    1.55    1.00
  YS02001622YS02001625 CONDUIT   1053.69     0  02:16      1.34    0.56    1.00
  YS02001625YS02001629 CONDUIT    929.14     0  01:59      1.18    0.44    1.00
  YS02001629YS02163301 CONDUIT    930.50     0  01:59      1.18    1.15    1.00
  YS02001633YS02163601 CONDUIT   1343.91     0  02:00      1.71    1.41    1.00
  YS02001641YS02001644 CONDUIT   1344.01     0  02:00      1.71    4.34    1.00
  YS02001644YS02001647 CONDUIT   1714.91     0  02:00      2.21    1.01    1.00
  YS02001647YS02001649 CONDUIT   1736.24     0  02:00      2.31    0.92    1.00
  YS02001649YS02001757 CONDUIT   1970.20     0  02:01      2.51    1.20    1.00
  YS02001652YS02001649 CONDUIT   1404.07     0  02:13      1.79    0.70    1.00
  YS02001655YS02001652 CONDUIT   1404.17     0  02:13      1.79    0.68    1.00
  YS02001658YS02001655 CONDUIT   1402.79     0  02:13      1.82    0.60    1.00
  YS02001661YS02001658 CONDUIT   1402.56     0  02:13      2.23    0.55    1.00
  YS02001664YS02001661 CONDUIT   1401.85     0  02:13      2.20    0.44    1.00
  YS02001745YS02001748 CONDUIT    876.90     0  02:13      2.08    0.34    1.00
  YS02001748YS02001751 CONDUIT    876.73     0  02:13      1.63    0.44    1.00
  YS02001751YS02001754 CONDUIT    877.05     0  02:13      1.38    0.42    1.00
  YS02001754YS02001757 CONDUIT    877.33     0  02:13      1.12    0.35    1.00
  YS02001757CaochengTiaoxuchi CONDUIT   3173.07     0  02:06      4.04    1.37    1.00
  YS02001759YS02001757 CONDUIT   1382.74     0  02:12      1.76    0.98    1.00
  YS02001762YS02001759 CONDUIT    724.03     0  02:06      0.92    0.83    1.00
  YS02001765YS02001762 CONDUIT    723.58     0  02:06      0.92    0.68    1.00
  YS02001767YS02001765 CONDUIT    723.91     0  02:06      0.92    0.91    1.00
  YS02001770YS02001767 CONDUIT    723.67     0  02:06      0.92    2.87    1.00
  YS02001774YS02001770 CONDUIT    851.94     0  02:16      1.08    0.54    1.00
  YS02001779YS02001774 CONDUIT    851.65     0  02:16      1.08    0.43    1.00
  YS02001783YS02001784 CONDUIT   1175.55     0  02:13      2.34    1.62    1.00
  YS02001784YS02001785 CONDUIT   1176.58     0  02:13      2.34    2.74    1.00
  YS02001786YS02001788 CONDUIT   1177.48     0  02:11      2.50    2.27    0.89
  YS02001788YS02001790 CONDUIT   1186.71     0  02:11      2.73    0.87    0.85
  YS02001790YS02001791 CONDUIT   1312.96     0  02:13      3.44    1.43    0.71
  YS02001791YS02001793 CONDUIT   1262.75     0  02:14      6.82    0.54    0.43
  YS02001793JiankangQianchi CONDUIT   1263.19     0  02:14      2.53    0.10    0.64
  YS02001882YS02001884 CONDUIT     29.04     0  01:58      0.16    0.03    1.00
  YS02001884YS02001887 CONDUIT     35.28     0  02:48      0.12    0.05    1.00
  YS02001887YS02001890 CONDUIT   1298.35     0  02:13      1.65    2.22    1.00
  YS02001890YS02001895 CONDUIT    522.15     0  02:07      0.66    0.24    1.00
  YS02001895YS02001898 CONDUIT    519.03     0  02:07      0.66    0.90    1.00
  YS02001898YS02001901 CONDUIT    518.25     0  02:20      0.66    0.33    1.00
  YS02001901YS02001904 CONDUIT    518.08     0  02:11      0.66    0.80    1.00
  YS02001904YS02001907 CONDUIT    518.26     0  02:20      0.66    0.18    1.00
  YS02001907YS02006553 CONDUIT    803.02     0  02:34      0.89    0.94    1.00
  YS02001910YS02001907 CONDUIT   1993.01     0  02:15      2.54    1.12    1.00
  YS02001915YS02001910 CONDUIT   1993.17     0  02:15      2.54    0.99    1.00
  YS02001918YS02001915 CONDUIT    754.96     0  02:14      0.96    0.42    1.00
  YS02001920YS02001918 CONDUIT    754.03     0  02:14      0.96    0.73    1.00
  YS02001923YS02001920 CONDUIT    750.84     0  02:14      0.96    0.34    1.00
  YS02001926YS02001923 CONDUIT    748.93     0  02:14      0.95    1.07    1.00
  YS02001929YS02001926 CONDUIT    748.16     0  02:14      1.07    0.36    1.00
  YS02006553YS02006556 CONDUIT    803.45     0  02:34      1.02    0.69    1.00
  YS02006556YS02006558 CONDUIT    805.16     0  02:34      1.03    0.64    1.00
  YS02006558YS02006561 CONDUIT   1175.23     0  02:13      4.16    2.60    1.00
  YS02006561YS02001783 CONDUIT   1175.20     0  02:13      2.34    0.61    1.00
  YS02163301YS02001633 CONDUIT    930.39     0  01:59      1.18    0.87    1.00
  YS02163601YS02164001 CONDUIT   1344.08     0  02:00      1.71    1.19    1.00
  YS02164001YS02001641 CONDUIT   1343.83     0  02:00      1.71    1.83    1.00
  CC-R1                PUMP       683.00     0  00:00              1.00
  CC-R2                PUMP       683.00     0  00:00              1.00
  CC-S1                PUMP       200.00     0  00:00              1.00
  CC-S2                PUMP       200.00     0  00:00              1.00
  JK-R1                PUMP      1000.00     0  00:00              1.00
  JK-R2                PUMP      1000.00     0  00:00              1.00
  JK-S                 PUMP       300.00     0  00:00              1.00
  
  
  ***************************
  Flow Classification Summary
  ***************************
  
  -------------------------------------------------------------------------------------
                      Adjusted    ---------- Fraction of Time in Flow Class ---------- 
                       /Actual         Up    Down  Sub   Sup   Up    Down  Norm  Inlet 
  Conduit               Length    Dry  Dry   Dry   Crit  Crit  Crit  Crit  Ltd   Ctrl  
  -------------------------------------------------------------------------------------
  1                       1.00   0.00  0.00  0.00  0.00  1.00  0.00  0.00  0.32  0.00
  WS02003060WS02003069    1.00   0.00  0.00  0.00  0.97  0.03  0.00  0.00  0.66  0.00
  WS02003066WSF200        1.00   0.06  0.00  0.00  0.00  0.94  0.00  0.00  0.82  0.00
  WS02003067WS02003066    1.00   0.05  0.01  0.00  0.94  0.00  0.00  0.00  0.00  0.00
  WS02003069WS02003072    1.00   0.00  0.00  0.00  0.99  0.01  0.00  0.00  0.68  0.00
  WS02003072WS02003073    1.00   0.00  0.00  0.00  0.00  0.00  0.00  1.00  0.00  0.00
  WS02004401WS02004402    1.00   0.02  0.00  0.00  0.98  0.00  0.00  0.00  0.00  0.00
  WS02004402WS02004403    1.00   0.02  0.00  0.00  0.98  0.00  0.00  0.00  0.00  0.00
  WS02004403WS02004404    1.00   0.00  0.03  0.00  0.97  0.00  0.00  0.00  0.00  0.00
  WS02004404WS02004405    1.00   0.00  0.00  0.00  1.00  0.00  0.00  0.00  0.01  0.00
  WS02004405WS02004406    1.00   0.00  0.00  0.00  1.00  0.00  0.00  0.00  0.00  0.00
  WS02004406WS02004407    1.00   0.00  0.03  0.00  0.96  0.00  0.00  0.00  0.00  0.00
  WS02004407WS02004409    1.00   0.04  0.00  0.00  0.96  0.01  0.00  0.00  0.96  0.00
  WS02004409WS02004410    1.00   0.04  0.00  0.00  0.96  0.00  0.00  0.00  0.00  0.00
  WS02004410WS02004411    1.00   0.04  0.00  0.00  0.96  0.00  0.00  0.00  0.00  0.00
  WS02004411WS02004412    1.00   0.04  0.00  0.00  0.96  0.00  0.00  0.00  0.00  0.00
  WS02004412WS02004413    1.00   0.04  0.00  0.00  0.96  0.00  0.00  0.00  0.00  0.00
  WS02004413WS02003067    1.00   0.04  0.01  0.00  0.00  0.00  0.95  0.00  0.00  0.00
  WS02006109WS02006110    1.00   0.00  0.01  0.00  0.98  0.00  0.01  0.00  0.00  0.00
  WS02006110WS02006113    1.00   0.01  0.01  0.00  0.98  0.00  0.00  0.00  0.00  0.00
  WS02006111WS02006112    1.00   0.02  0.00  0.00  0.98  0.00  0.00  0.00  0.98  0.00
  WS02006112WS02006115    1.00   0.02  0.00  0.00  0.97  0.00  0.00  0.00  0.00  0.00
  WS02006113WS02006111    1.00   0.02  0.00  0.00  0.00  0.98  0.00  0.00  0.15  0.00
  WS02006115WS02006116    1.00   0.02  0.00  0.00  0.97  0.00  0.00  0.01  0.00  0.00
  WS02006116WS02004401    1.00   0.02  0.00  0.00  0.98  0.00  0.00  0.00  0.00  0.00
  WS02006228WS02006109    1.00   0.00  0.00  0.00  1.00  0.00  0.00  0.00  0.00  0.00
  WS02006229WS02006228    1.00   0.00  0.00  0.00  0.99  0.00  0.00  0.01  0.00  0.00
  WS02006230WS02006229    1.00   0.00  0.00  0.00  0.99  0.00  0.00  0.01  0.00  0.00
  WS02006231WS02006230    1.00   0.00  0.00  0.00  0.31  0.00  0.68  0.00  0.00  0.00
  WS02006232WS02006231    1.00   0.00  0.00  0.00  0.99  0.00  0.01  0.00  0.00  0.00
  WS02006234WS02006232    1.00   0.00  0.00  0.00  1.00  0.00  0.00  0.00  0.09  0.00
  WS02006235WS02006234    1.00   0.00  0.00  0.00  0.85  0.00  0.15  0.00  0.00  0.00
  WS02006238WS02006235    1.00   0.00  0.00  0.00  1.00  0.00  0.00  0.00  0.00  0.00
  WS02006239WS02006238    1.00   0.00  0.00  0.00  1.00  0.00  0.00  0.00  0.21  0.00
  WS02006240WS02006239    1.00   0.00  0.00  0.00  0.70  0.00  0.00  0.30  0.03  0.00
  WS02006242WS02006240    1.00   0.00  0.00  0.00  0.98  0.00  0.02  0.00  0.00  0.00
  WS02006243WS02006242    1.00   0.00  0.00  0.00  0.98  0.00  0.00  0.02  0.46  0.00
  WS02006245WS02006243    1.00   0.00  0.00  0.00  0.78  0.00  0.00  0.21  0.01  0.00
  WS02006247WS02006245    1.00   0.00  0.00  0.00  0.98  0.00  0.00  0.02  0.00  0.00
  WS02006248WS02006247    1.00   0.00  0.00  0.00  0.99  0.00  0.00  0.01  0.28  0.00
  WS02006249WS02006248    1.00   0.00  0.00  0.00  0.55  0.00  0.45  0.00  0.00  0.00
  WS02006251WS02006249    1.00   0.00  0.00  0.00  0.99  0.01  0.00  0.00  0.46  0.00
  WS02006252WS02006251    1.00   0.00  0.50  0.00  0.11  0.00  0.39  0.00  0.00  0.00
  WS02006256WS02006235    1.00   0.00  0.00  0.00  0.99  0.01  0.00  0.00  0.00  0.00
  WSF200WS02003060        1.00   0.00  0.06  0.00  0.29  0.65  0.00  0.00  0.49  0.00
  YS02001580YS02001583    1.00   0.23  0.53  0.00  0.24  0.00  0.00  0.00  0.62  0.00
  YS02001583YS02001586    1.00   0.40  0.31  0.00  0.29  0.00  0.00  0.00  0.62  0.00
  YS02001586YS02001590    1.00   0.13  0.00  0.00  0.47  0.04  0.00  0.37  0.35  0.00
  YS02001590YS02001593    1.00   0.13  0.01  0.00  0.16  0.00  0.71  0.00  0.00  0.00
  YS02001593YS02001596    1.00   0.13  0.00  0.00  0.18  0.01  0.00  0.68  0.02  0.00
  YS02001596YS02001600    1.00   0.13  0.00  0.00  0.24  0.01  0.00  0.62  0.04  0.00
  YS02001600YS02001601    1.00   0.13  0.01  0.00  0.86  0.00  0.00  0.00  0.57  0.00
  YS02001601YS02001602    1.00   0.13  0.01  0.00  0.87  0.00  0.00  0.00  0.00  0.00
  YS02001602YS02001605    1.00   0.13  0.00  0.00  0.87  0.00  0.00  0.00  0.00  0.00
  YS02001605YS02001607    1.00   0.13  0.00  0.00  0.87  0.00  0.00  0.00  0.00  0.00
  YS02001607YS02001610    1.00   0.13  0.00  0.00  0.86  0.00  0.00  0.00  0.01  0.00
  YS02001610YS02001613    1.00   0.13  0.00  0.00  0.87  0.00  0.00  0.00  0.00  0.00
  YS02001613YS02001616    1.00   0.13  0.00  0.00  0.87  0.00  0.00  0.00  0.00  0.00
  YS02001616YS02001619    1.00   0.13  0.00  0.00  0.87  0.00  0.00  0.00  0.00  0.00
  YS02001619YS02001622    1.00   0.13  0.00  0.00  0.87  0.00  0.00  0.00  0.27  0.00
  YS02001622YS02001625    1.00   0.13  0.00  0.00  0.87  0.00  0.00  0.00  0.03  0.00
  YS02001625YS02001629    1.00   0.13  0.04  0.00  0.21  0.00  0.63  0.00  0.00  0.00
  YS02001629YS02163301    1.00   0.14  0.01  0.00  0.85  0.00  0.00  0.00  0.00  0.00
  YS02001633YS02163601    1.00   0.00  0.01  0.00  0.99  0.00  0.00  0.00  0.14  0.00
  YS02001641YS02001644    1.00   0.00  0.01  0.00  0.99  0.00  0.00  0.00  0.00  0.00
  YS02001644YS02001647    1.00   0.00  0.16  0.00  0.84  0.00  0.00  0.00  0.00  0.00
  YS02001647YS02001649    1.00   0.00  0.16  0.00  0.60  0.24  0.00  0.00  0.53  0.00
  YS02001649YS02001757    1.00   0.00  0.00  0.00  0.86  0.13  0.00  0.00  0.39  0.00
  YS02001652YS02001649    1.00   0.00  0.00  0.00  0.97  0.03  0.00  0.00  0.69  0.00
  YS02001655YS02001652    1.00   0.00  0.00  0.00  0.23  0.01  0.00  0.75  0.05  0.00
  YS02001658YS02001655    1.00   0.00  0.14  0.00  0.70  0.16  0.00  0.00  0.63  0.00
  YS02001661YS02001658    1.00   0.14  0.00  0.00  0.54  0.33  0.00  0.00  0.64  0.00
  YS02001664YS02001661    1.00   0.13  0.00  0.00  0.78  0.10  0.00  0.00  0.83  0.00
  YS02001745YS02001748    1.00   0.00  0.00  0.00  0.14  0.00  0.00  0.85  0.04  0.00
  YS02001748YS02001751    1.00   0.00  0.00  0.00  0.86  0.14  0.00  0.00  0.72  0.00
  YS02001751YS02001754    1.00   0.00  0.00  0.00  0.21  0.01  0.00  0.79  0.03  0.00
  YS02001754YS02001757    1.00   0.00  0.00  0.00  1.00  0.00  0.00  0.00  0.75  0.00
  YS02001757CaochengTiaoxuchi    1.00   0.00  0.00  0.00  0.95  0.05  0.00  0.00  0.48  0.00
  YS02001759YS02001757    1.00   0.00  0.00  0.00  0.99  0.01  0.00  0.00  0.49  0.00
  YS02001762YS02001759    1.00   0.00  0.00  0.00  1.00  0.00  0.00  0.00  0.04  0.00
  YS02001765YS02001762    1.00   0.00  0.00  0.00  1.00  0.00  0.00  0.00  0.61  0.00
  YS02001767YS02001765    1.00   0.00  0.00  0.00  1.00  0.00  0.00  0.00  0.01  0.00
  YS02001770YS02001767    1.00   0.00  0.00  0.00  1.00  0.00  0.00  0.00  0.00  0.00
  YS02001774YS02001770    1.00   0.00  0.13  0.00  0.71  0.00  0.16  0.00  0.02  0.00
  YS02001779YS02001774    1.00   0.00  0.00  0.00  1.00  0.00  0.00  0.00  0.72  0.00
  YS02001783YS02001784    1.00   0.00  0.17  0.00  0.83  0.00  0.00  0.00  0.54  0.00
  YS02001784YS02001785    1.00   0.00  0.00  0.00  1.00  0.00  0.00  0.00  0.15  0.00
  YS02001786YS02001788    1.00   0.00  0.00  0.00  0.79  0.21  0.00  0.00  0.00  0.00
  YS02001788YS02001790    1.00   0.00  0.00  0.00  0.21  0.79  0.00  0.00  0.78  0.00
  YS02001790YS02001791    1.00   0.00  0.00  0.00  0.01  0.99  0.00  0.00  0.16  0.00
  YS02001791YS02001793    1.00   0.00  0.00  0.00  0.00  1.00  0.00  0.00  0.01  0.00
  YS02001793JiankangQianchi    1.00   0.00  0.00  0.00  0.95  0.05  0.00  0.00  0.96  0.00
  YS02001882YS02001884    1.00   0.14  0.01  0.00  0.85  0.00  0.00  0.00  0.00  0.00
  YS02001884YS02001887    1.00   0.06  0.05  0.00  0.89  0.00  0.00  0.00  0.00  0.00
  YS02001887YS02001890    1.00   0.00  0.00  0.00  0.97  0.00  0.03  0.00  0.00  0.00
  YS02001890YS02001895    1.00   0.00  0.15  0.00  0.85  0.00  0.00  0.00  0.00  0.00
  YS02001895YS02001898    1.00   0.15  0.00  0.00  0.83  0.00  0.02  0.00  0.00  0.00
  YS02001898YS02001901    1.00   0.16  0.00  0.00  0.84  0.00  0.00  0.00  0.01  0.00
  YS02001901YS02001904    1.00   0.16  0.00  0.00  0.84  0.00  0.00  0.00  0.00  0.00
  YS02001904YS02001907    1.00   0.00  0.15  0.00  0.84  0.00  0.00  0.00  0.00  0.00
  YS02001907YS02006553    1.00   0.00  0.02  0.00  0.98  0.00  0.00  0.00  0.00  0.00
  YS02001910YS02001907    1.00   0.00  0.00  0.00  0.97  0.00  0.00  0.03  0.12  0.00
  YS02001915YS02001910    1.00   0.00  0.00  0.00  0.97  0.03  0.00  0.00  0.13  0.00
  YS02001918YS02001915    1.00   0.00  0.01  0.00  0.98  0.02  0.00  0.00  0.71  0.00
  YS02001920YS02001918    1.00   0.00  0.01  0.00  0.99  0.00  0.00  0.00  0.00  0.00
  YS02001923YS02001920    1.00   0.00  0.00  0.00  1.00  0.00  0.00  0.00  0.89  0.00
  YS02001926YS02001923    1.00   0.00  0.07  0.00  0.09  0.00  0.84  0.00  0.00  0.00
  YS02001929YS02001926    1.00   0.00  0.13  0.00  0.87  0.00  0.00  0.00  0.80  0.00
  YS02006553YS02006556    1.00   0.01  0.00  0.00  0.99  0.00  0.00  0.00  0.03  0.00
  YS02006556YS02006558    1.00   0.00  0.00  0.00  1.00  0.00  0.00  0.00  0.00  0.00
  YS02006558YS02006561    1.00   0.17  0.00  0.00  0.08  0.75  0.00  0.00  0.17  0.00
  YS02006561YS02001783    1.00   0.17  0.00  0.00  0.12  0.71  0.00  0.00  0.65  0.00
  YS02163301YS02001633    1.00   0.00  0.14  0.00  0.86  0.00  0.00  0.00  0.00  0.00
  YS02163601YS02164001    1.00   0.00  0.08  0.00  0.92  0.00  0.00  0.00  0.00  0.00
  YS02164001YS02001641    1.00   0.01  0.07  0.00  0.92  0.00  0.00  0.00  0.05  0.00
  
  
  *************************
  Conduit Surcharge Summary
  *************************
  
  ----------------------------------------------------------------------------
                                                           Hours        Hours 
                         --------- Hours Full --------   Above Full   Capacity
  Conduit                Both Ends  Upstream  Dnstream   Normal Flow   Limited
  ----------------------------------------------------------------------------
  WS02003072WS02003073        0.01      0.01      0.01      1.10         0.01
  WS02004404WS02004405        0.01      0.01      0.01      3.82         0.01
  WS02004405WS02004406        0.01      0.01      0.01      0.72         0.01
  WS02006109WS02006110        0.76      0.76      2.33      0.84         0.01
  WS02006110WS02006113        0.01      0.01      2.29      0.01         0.01
  WS02006111WS02006112        0.01      0.01      2.57      0.01         0.01
  WS02006112WS02006115        0.01      0.01      0.76      0.01         0.01
  WS02006228WS02006109        2.21      2.34      2.21      2.82         2.21
  WS02006229WS02006228        2.20      2.22      2.20      2.62         2.19
  WS02006230WS02006229        2.45      2.54      2.45      4.49         2.45
  WS02006231WS02006230        0.79      0.79      0.88      4.19         0.01
  WS02006232WS02006231        0.86      0.86      2.34      0.91         0.01
  WS02006234WS02006232        2.17      2.17      2.34      0.89         0.88
  WS02006235WS02006234        1.18      1.18      2.20      4.04         0.01
  WS02006238WS02006235        2.24      2.24      2.35      0.01         0.01
  WS02006239WS02006238        2.25      2.29      2.28      2.32         1.96
  WS02006240WS02006239        2.21      2.24      2.21      2.32         1.83
  WS02006242WS02006240        2.22      2.22      2.35      2.45         0.01
  WS02006243WS02006242        2.13      2.13      2.31      0.01         0.02
  WS02006245WS02006243        2.11      2.12      2.12      1.52         1.47
  WS02006247WS02006245        2.11      2.14      2.11      3.82         2.10
  WS02006248WS02006247        2.11      2.11      2.13      0.01         0.02
  WS02006249WS02006248        2.10      2.10      2.12      3.73         0.01
  WS02006251WS02006249        2.12      2.13      2.12      2.37         2.07
  WS02006252WS02006251        2.41      2.41      2.41      2.41         0.01
  WS02006256WS02006235        4.06      4.09      6.25      1.35         0.01
  YS02001580YS02001583        0.90      0.90      0.98      0.01         0.01
  YS02001583YS02001586        0.91      0.91      1.07      0.01         0.01
  YS02001586YS02001590        1.08      1.08      1.16      0.01         0.01
  YS02001590YS02001593        1.16      1.16      1.19      1.17         0.01
  YS02001593YS02001596        1.18      1.18      1.28      0.01         0.01
  YS02001596YS02001600        1.34      1.34      1.43      0.01         0.01
  YS02001600YS02001601        1.49      1.49      1.75      0.01         0.01
  YS02001601YS02001602        1.66      1.66      1.79      1.44         0.01
  YS02001602YS02001605        1.61      1.61      1.66      2.54         0.01
  YS02001605YS02001607        1.56      1.61      1.57      1.69         1.55
  YS02001607YS02001610        1.16      1.16      1.18      0.01         0.01
  YS02001610YS02001613        1.15      1.15      1.18      0.01         0.01
  YS02001613YS02001616        1.12      1.12      1.15      0.01         0.01
  YS02001616YS02001619        1.10      1.10      1.12      0.15         0.13
  YS02001619YS02001622        1.10      1.10      1.10      1.13         1.02
  YS02001622YS02001625        1.10      1.10      1.27      0.01         0.01
  YS02001625YS02001629        1.03      1.03      1.27      0.01         0.01
  YS02001629YS02163301        1.27      1.27      1.28      0.16         0.17
  YS02001633YS02163601        1.30      1.30      1.34      0.31         0.32
  YS02001641YS02001644        1.22      1.25      1.22      1.82         1.20
  YS02001644YS02001647        0.99      0.99      1.22      0.03         0.01
  YS02001647YS02001649        0.99      0.99      1.10      0.01         0.01
  YS02001649YS02001757        1.10      1.10      1.16      0.16         0.08
  YS02001652YS02001649        0.94      0.94      1.10      0.01         0.01
  YS02001655YS02001652        0.72      0.72      0.92      0.01         0.01
  YS02001658YS02001655        0.42      0.42      0.72      0.01         0.01
  YS02001661YS02001658        0.16      0.16      0.41      0.01         0.01
  YS02001664YS02001661        0.01      0.01      0.21      0.01         0.01
  YS02001745YS02001748        0.03      0.03      0.34      0.01         0.01
  YS02001748YS02001751        0.38      0.38      0.57      0.01         0.01
  YS02001751YS02001754        0.57      0.57      0.83      0.01         0.01
  YS02001754YS02001757        0.89      0.89      1.16      0.01         0.01
  YS02001757CaochengTiaoxuchi        1.13      1.16      2.10      0.53         0.44
  YS02001759YS02001757        1.08      1.08      1.16      0.01         0.01
  YS02001762YS02001759        1.05      1.05      1.08      0.01         0.01
  YS02001765YS02001762        1.02      1.02      1.05      0.01         0.01
  YS02001767YS02001765        0.99      0.99      1.02      0.01         0.02
  YS02001770YS02001767        0.99      0.99      0.99      0.72         0.58
  YS02001774YS02001770        0.97      0.97      1.04      0.01         0.01
  YS02001779YS02001774        0.81      0.81      1.04      0.01         0.01
  YS02001783YS02001784        0.72      0.75      0.72      0.96         0.72
  YS02001784YS02001785        0.59      0.72      0.59      1.28         0.59
  YS02001786YS02001788        0.01      0.59      0.01      1.10         0.01
  YS02001790YS02001791        0.01      0.01      0.01      0.70         0.01
  YS02001793JiankangQianchi        0.01      0.01      7.28      0.01         0.01
  YS02001882YS02001884        0.68      0.68      0.70      0.01         0.01
  YS02001884YS02001887        0.72      0.72      0.74      0.01         0.01
  YS02001887YS02001890        0.76      0.76      0.77      0.22         0.01
  YS02001890YS02001895        0.67      0.67      0.79      0.01         0.01
  YS02001895YS02001898        0.67      0.67      0.67      0.01         0.01
  YS02001898YS02001901        0.67      0.67      0.72      0.01         0.01
  YS02001901YS02001904        0.71      0.71      0.72      0.01         0.01
  YS02001904YS02001907        0.71      0.71      1.08      0.01         0.01
  YS02001907YS02006553        1.30      1.30      1.38      0.01         0.01
  YS02001910YS02001907        0.79      0.79      1.06      0.12         0.11
  YS02001915YS02001910        0.68      0.68      0.79      0.01         0.01
  YS02001918YS02001915        0.58      0.58      0.68      0.01         0.01
  YS02001920YS02001918        0.58      0.58      0.60      0.01         0.01
  YS02001923YS02001920        0.53      0.53      0.60      0.01         0.01
  YS02001926YS02001923        0.24      0.24      0.27      0.06         0.01
  YS02001929YS02001926        0.13      0.13      0.27      0.01         0.01
  YS02006553YS02006556        0.91      0.91      1.08      0.01         0.01
  YS02006556YS02006558        1.00      1.00      1.11      0.01         0.01
  YS02006558YS02006561        0.62      0.89      0.62      1.21         0.62
  YS02006561YS02001783        0.55      0.55      0.75      0.01         0.01
  YS02163301YS02001633        1.28      1.28      1.32      0.01         0.01
  YS02163601YS02164001        1.25      1.25      1.34      0.14         0.01
  YS02164001YS02001641        1.25      1.25      1.25      0.84         0.78
  
  
  ***************
  Pumping Summary
  ***************
  
  ---------------------------------------------------------------------------------------------------------
                                                  Min       Avg       Max     Total     Power    % Time Off
                        Percent   Number of      Flow      Flow      Flow    Volume     Usage    Pump Curve
  Pump                 Utilized   Start-Ups       LPS       LPS       LPS  10^6 ltr     Kw-hr    Low   High
  ---------------------------------------------------------------------------------------------------------
  CC-R1                   24.53           6      0.00    683.00    683.00     4.826     90.34    0.0   28.5
  CC-R2                   18.39           3      0.00    683.00    683.00     3.617     69.75    0.0    9.4
  CC-S1                   47.51           8      0.00    200.00    200.00     2.736     15.53    0.0    0.0
  CC-S2                   31.50           4      0.00    200.00    200.00     1.814      9.86    0.0    0.0
  JK-R1                    6.78          13      0.00   1000.00   1000.00     1.954     19.52    0.0    0.0
  JK-R2                    5.83          15      0.00   1000.00   1000.00     1.678     15.65    0.0    0.0
  JK-S                    16.86          14      0.00    300.00    300.00     1.456     24.75    0.0    0.0
  

  Analysis begun on:  Tue Apr 15 14:54:15 2025
  Analysis ended on:  Tue Apr 15 14:54:17 2025
  Total elapsed time: 00:00:02