
  EPA STORM WATER MANAGEMENT MODEL - VERSION 5.2 (Build 5.2.4)
  PYSWMM TOOLKIT API - VERSION v1.0 (2023-11-27)
  ------------------------------------------------------------

  WARNING 04: minimum elevation drop used for Conduit WS02004404WS02004405
  WARNING 03: negative offset ignored for Link YS02001904YS02001907
  
  ****************
  Analysis Options
  ****************
  Flow Units ............... LPS
  Process Models:
    Rainfall/Runoff ........ YES
    RDII ................... NO
    Snowmelt ............... NO
    Groundwater ............ NO
    Flow Routing ........... YES
    Ponding Allowed ........ NO
    Water Quality .......... NO
  Infiltration Method ...... HORTON
  Flow Routing Method ...... DYNWAVE
  Surcharge Method ......... EXTRAN
  Starting Date ............ 08/28/2015 08:00:00
  Ending Date .............. 08/28/2015 16:00:00
  Antecedent Dry Days ...... 8.0
  Report Time Step ......... 00:01:00
  Wet Time Step ............ 00:01:00
  Dry Time Step ............ 00:01:00
  Routing Time Step ........ 30.00 sec
  Variable Time Step ....... YES
  Maximum Trials ........... 8
  Number of Threads ........ 4
  Head Tolerance ........... 0.001500 m
  
  
  **************************        Volume         Depth
  Runoff Quantity Continuity     hectare-m            mm
  **************************     ---------       -------
  Total Precipitation ......         2.598        78.315
  Evaporation Loss .........         0.000         0.000
  Infiltration Loss ........         0.100         3.020
  Surface Runoff ...........         2.465        74.321
  Final Storage ............         0.033         0.994
  Continuity Error (%) .....        -0.025
  
  
  **************************        Volume        Volume
  Flow Routing Continuity        hectare-m      10^6 ltr
  **************************     ---------     ---------
  Dry Weather Inflow .......         0.025         0.251
  Wet Weather Inflow .......         2.466        24.656
  Groundwater Inflow .......         0.000         0.000
  RDII Inflow ..............         0.000         0.000
  External Inflow ..........         0.083         0.834
  External Outflow .........         1.665        16.654
  Flooding Loss ............         0.878         8.785
  Evaporation Loss .........         0.000         0.000
  Exfiltration Loss ........         0.000         0.000
  Initial Stored Volume ....         0.243         2.431
  Final Stored Volume ......         0.278         2.778
  Continuity Error (%) .....        -0.160
  
  
  *************************
  Highest Continuity Errors
  *************************
  Node YS02001583 (-11.21%)
  Node YS02001884 (5.13%)
  
  
  ***************************
  Time-Step Critical Elements
  ***************************
  Link WS02006252WS02006251 (47.15%)
  Link WS02004404WS02004405 (12.20%)
  Link WS02006238WS02006235 (9.35%)
  Link WS02006235WS02006234 (9.09%)
  Link YS02001791YS02001793 (7.53%)
  
  
  ********************************
  Highest Flow Instability Indexes
  ********************************
  Link WS02006113WS02006111 (46)
  Link WS02006111WS02006112 (28)
  Link WS02006238WS02006235 (15)
  Link WS02006256WS02006235 (14)
  Link WS02006252WS02006251 (14)
  
  
  *********************************
  Most Frequent Nonconverging Nodes
  *********************************
  Node CC-1 (9.52%)
  Node CC-2 (9.52%)
  Node JK-1 (9.52%)
  Node JK-2 (9.52%)
  Node WSC (9.52%)
  
  
  *************************
  Routing Time Step Summary
  *************************
  Minimum Time Step           :     0.02 sec
  Average Time Step           :     1.98 sec
  Maximum Time Step           :     6.43 sec
  % of Time in Steady State   :     0.00
  Average Iterations per Step :     2.95
  % of Steps Not Converging   :     9.52
  Time Step Frequencies       :
     30.000 - 13.228 sec      :     0.00 %
     13.228 -  5.833 sec      :     7.51 %
      5.833 -  2.572 sec      :    20.22 %
      2.572 -  1.134 sec      :    20.75 %
      1.134 -  0.500 sec      :    51.52 %
  
  
  ***************************
  Subcatchment Runoff Summary
  ***************************
  
  ------------------------------------------------------------------------------------------------------------------------------
                            Total      Total      Total      Total     Imperv       Perv      Total       Total     Peak  Runoff
                           Precip      Runon       Evap      Infil     Runoff     Runoff     Runoff      Runoff   Runoff   Coeff
  Subcatchment                 mm         mm         mm         mm         mm         mm         mm    10^6 ltr      LPS
  ------------------------------------------------------------------------------------------------------------------------------
  sub60                     78.32       0.00       0.00       1.84      67.72       7.57      75.29        0.99   618.33   0.961
  sub61                     78.32       0.00       0.00       2.66      63.88      10.66      74.54        1.37   853.79   0.952
  sub62                     78.32       0.00       0.00       1.22      70.77       5.05      75.81        2.08  1199.41   0.968
  sub63                     78.32       0.00       0.00       4.87      54.64      17.85      72.49        1.65   940.61   0.926
  sub64                     78.32       0.00       0.00       2.46      65.37       9.29      74.65        1.79   971.31   0.953
  sub65                     78.32       0.00       0.00       2.13      66.89       8.05      74.94        2.06  1082.53   0.957
  sub66                     78.32       0.00       0.00       5.97      54.53      16.75      71.28        3.32  1400.33   0.910
  sub67                     78.32       0.00       0.00       1.18      70.81       5.09      75.90        1.41   936.48   0.969
  sub68                     78.32       0.00       0.00       2.20      66.17       8.77      74.94        2.06  1231.16   0.957
  sub69                     78.32       0.00       0.00       1.95      66.46       9.80      76.26        2.82  1447.68   0.974
  sub70                     78.32       0.00       0.00       6.43      51.53      20.20      71.72        2.07   789.18   0.916
  sub71                     78.32       0.00       0.00       1.25      70.73       5.02      75.74        1.98  1053.08   0.967
  sub72                     78.32       0.00       0.00       1.11      71.44       4.37      75.81        1.04   506.64   0.968
  
  
  ******************
  Node Depth Summary
  ******************
  
  ---------------------------------------------------------------------------------
                                 Average  Maximum  Maximum  Time of Max    Reported
                                   Depth    Depth      HGL   Occurrence   Max Depth
  Node                 Type       Meters   Meters   Meters  days hr:min      Meters
  ---------------------------------------------------------------------------------
  WS02003060           JUNCTION     0.24     0.38     5.32     0  03:02        0.38
  WS02003066           JUNCTION     0.20     0.30     5.85     0  03:01        0.30
  WS02003067           JUNCTION     0.51     0.70     6.02     0  03:01        0.70
  WS02003069           JUNCTION     0.26     0.43     5.01     0  03:02        0.43
  WS02003072           JUNCTION     0.33     0.50     4.87     0  03:03        0.50
  WS02003073           JUNCTION     0.19     0.30     4.36     0  03:03        0.30
  WS02004401           JUNCTION     0.59     0.85     6.85     0  02:00        0.85
  WS02004402           JUNCTION     0.62     0.88     6.84     0  02:00        0.88
  WS02004403           JUNCTION     0.64     0.89     6.82     0  01:57        0.89
  WS02004404           JUNCTION     0.72     0.96     6.81     0  02:01        0.96
  WS02004405           JUNCTION     0.71     0.96     6.81     0  02:01        0.96
  WS02004406           JUNCTION     0.73     0.96     6.79     0  01:58        0.96
  WS02004407           JUNCTION     0.18     0.30     6.61     0  01:58        0.30
  WS02004409           JUNCTION     0.39     0.67     6.44     0  02:59        0.67
  WS02004410           JUNCTION     0.42     0.68     6.40     0  03:00        0.68
  WS02004411           JUNCTION     0.44     0.69     6.37     0  03:02        0.69
  WS02004412           JUNCTION     0.46     0.70     6.34     0  02:02        0.70
  WS02004413           JUNCTION     0.62     0.86     6.33     0  03:01        0.86
  WS02006109           JUNCTION     0.65     1.16     7.78     0  02:03        1.01
  WS02006110           JUNCTION     0.65     1.17     7.76     0  02:03        0.94
  WS02006111           JUNCTION     0.18     0.29     6.99     0  02:35        0.29
  WS02006112           JUNCTION     0.74     1.07     6.95     0  02:13        1.05
  WS02006113           JUNCTION     0.27     0.46     7.35     0  02:32        0.46
  WS02006115           JUNCTION     0.47     0.75     6.89     0  02:13        0.75
  WS02006116           JUNCTION     0.56     0.83     6.87     0  02:00        0.83
  WS02006228           JUNCTION     0.64     1.18     7.83     0  02:03        1.18
  WS02006229           JUNCTION     0.61     1.22     7.91     0  02:03        1.22
  WS02006230           JUNCTION     0.61     1.36     8.10     0  02:03        1.32
  WS02006231           JUNCTION     0.42     1.14     8.26     0  02:03        1.14
  WS02006232           JUNCTION     0.56     1.36     8.40     0  02:03        1.36
  WS02006234           JUNCTION     0.48     1.38     8.54     0  02:03        1.38
  WS02006235           JUNCTION     0.52     1.46     8.63     0  02:02        1.44
  WS02006238           JUNCTION     0.55     1.51     8.65     0  02:02        1.47
  WS02006239           JUNCTION     0.52     1.49     8.70     0  02:02        1.42
  WS02006240           JUNCTION     0.49     1.44     8.73     0  02:02        1.35
  WS02006242           JUNCTION     0.56     1.48     8.74     0  02:02        1.38
  WS02006243           JUNCTION     0.47     1.38     8.80     0  01:41        1.24
  WS02006245           JUNCTION     0.47     1.28     8.77     0  01:41        1.19
  WS02006247           JUNCTION     0.50     1.24     8.74     0  02:02        1.18
  WS02006248           JUNCTION     0.46     1.10     8.69     0  01:41        1.10
  WS02006249           JUNCTION     0.49     1.09     8.69     0  01:38        1.09
  WS02006251           JUNCTION     0.49     1.51     9.18     0  01:41        1.48
  WS02006252           JUNCTION     0.36     1.50     9.74     0  00:00        1.04
  WS02006256           JUNCTION     0.98     2.35     9.28     0  00:00        2.35
  WSF200               JUNCTION     0.17     0.29     5.52     0  03:03        0.29
  YS02001580           JUNCTION     0.10     1.05     9.59     0  01:33        0.79
  YS02001583           JUNCTION     0.14     1.14     9.64     0  01:34        0.83
  YS02001586           JUNCTION     0.21     1.13     9.30     0  01:33        1.13
  YS02001590           JUNCTION     0.31     1.40     9.26     0  01:32        1.40
  YS02001593           JUNCTION     0.24     1.36     9.22     0  01:33        1.29
  YS02001596           JUNCTION     0.33     1.72     9.13     0  01:33        1.70
  YS02001600           JUNCTION     0.40     1.87     9.00     0  01:33        1.87
  YS02001601           JUNCTION     0.58     2.06     8.90     0  01:32        2.06
  YS02001602           JUNCTION     0.49     1.87     8.77     0  01:33        1.87
  YS02001605           JUNCTION     0.46     1.78     8.68     0  01:33        1.78
  YS02001607           JUNCTION     0.45     1.68     8.53     0  01:33        1.68
  YS02001610           JUNCTION     0.50     1.68     8.48     0  01:33        1.68
  YS02001613           JUNCTION     0.45     1.70     8.54     0  01:34        1.70
  YS02001616           JUNCTION     0.39     1.61     8.52     0  01:33        1.61
  YS02001619           JUNCTION     0.36     1.61     8.54     0  01:34        1.61
  YS02001622           JUNCTION     0.35     1.62     8.52     0  01:34        1.58
  YS02001625           JUNCTION     0.62     1.78     8.38     0  01:34        1.78
  YS02001629           JUNCTION     0.47     1.85     8.40     0  01:34        1.85
  YS02001633           JUNCTION     0.55     2.05     8.50     0  01:35        2.05
  YS02001641           JUNCTION     0.54     1.96     8.40     0  01:36        1.94
  YS02001644           JUNCTION     0.53     1.92     8.35     0  01:36        1.92
  YS02001647           JUNCTION     0.32     1.79     8.40     0  01:37        1.79
  YS02001649           JUNCTION     0.37     2.05     8.44     0  01:36        2.05
  YS02001652           JUNCTION     0.27     2.09     8.69     0  01:37        1.80
  YS02001655           JUNCTION     0.21     2.08     8.93     0  01:37        1.59
  YS02001658           JUNCTION     0.15     2.00     9.14     0  01:37        1.39
  YS02001661           JUNCTION     0.17     1.93     9.33     0  01:37        1.19
  YS02001664           JUNCTION     0.06     1.53     9.45     0  01:37        0.57
  YS02001745           JUNCTION     0.08     2.11     9.63     0  01:36        1.42
  YS02001748           JUNCTION     0.14     2.27     9.35     0  01:36        1.80
  YS02001751           JUNCTION     0.18     2.20     9.08     0  01:36        1.90
  YS02001754           JUNCTION     0.24     2.20     8.81     0  01:36        2.05
  YS02001757           JUNCTION     0.41     2.21     8.47     0  01:36        2.21
  YS02001759           JUNCTION     0.34     2.21     8.57     0  01:36        2.20
  YS02001762           JUNCTION     0.33     2.15     8.55     0  01:36        2.15
  YS02001765           JUNCTION     0.31     2.10     8.55     0  01:36        2.08
  YS02001767           JUNCTION     0.31     2.03     8.52     0  01:36        2.01
  YS02001770           JUNCTION     0.32     1.95     8.44     0  01:36        1.95
  YS02001774           JUNCTION     0.38     2.00     8.43     0  01:36        2.00
  YS02001779           JUNCTION     0.22     1.68     8.37     0  01:35        1.68
  YS02001783           JUNCTION     0.25     1.35     7.49     0  01:35        1.24
  YS02001784           JUNCTION     0.26     1.21     7.28     0  01:35        1.13
  YS02001786           JUNCTION     0.22     0.97     7.00     0  01:35        0.87
  YS02001788           JUNCTION     0.15     0.62     6.60     0  01:42        0.62
  YS02001790           JUNCTION     0.18     0.72     6.37     0  01:43        0.72
  YS02001791           JUNCTION     0.12     0.44     5.91     0  01:42        0.44
  YS02001793           JUNCTION     0.06     0.30     5.13     0  01:50        0.28
  YS02001882           JUNCTION     0.32     1.83     8.55     0  01:34        1.65
  YS02001884           JUNCTION     0.41     1.93     8.55     0  01:34        1.75
  YS02001887           JUNCTION     0.49     1.93     8.47     0  01:34        1.84
  YS02001890           JUNCTION     0.52     1.81     8.32     0  01:34        1.81
  YS02001895           JUNCTION     0.29     1.75     8.50     0  01:34        1.58
  YS02001898           JUNCTION     0.29     1.77     8.51     0  01:34        1.56
  YS02001901           JUNCTION     0.41     1.87     8.48     0  01:34        1.67
  YS02001904           JUNCTION     0.39     1.85     8.48     0  01:34        1.63
  YS02001907           JUNCTION     0.71     1.96     8.25     0  01:34        1.96
  YS02001910           JUNCTION     0.51     2.10     8.60     0  01:34        1.91
  YS02001915           JUNCTION     0.32     2.00     8.72     0  01:34        1.84
  YS02001918           JUNCTION     0.18     1.81     8.88     0  01:35        1.81
  YS02001920           JUNCTION     0.26     2.14     9.15     0  01:36        2.14
  YS02001923           JUNCTION     0.14     2.03     9.29     0  01:36        2.03
  YS02001926           JUNCTION     0.17     1.90     9.35     0  01:35        1.90
  YS02001929           JUNCTION     0.10     1.78     9.47     0  01:35        1.78
  YS02006553           JUNCTION     0.71     2.00     8.29     0  01:35        1.98
  YS02006556           JUNCTION     0.69     2.02     8.33     0  01:35        1.97
  YS02006558           JUNCTION     0.73     2.07     8.34     0  01:35        2.03
  YS02006561           JUNCTION     0.16     1.07     7.73     0  01:35        0.91
  YS02163301           JUNCTION     0.50     1.94     8.46     0  01:35        1.94
  YS02163601           JUNCTION     0.59     2.05     8.45     0  01:36        2.02
  YS02164001           JUNCTION     0.52     1.97     8.43     0  01:36        1.93
  CC-1                 OUTFALL      0.00     0.00     0.00     0  00:00        0.00
  CC-2                 OUTFALL      0.00     0.00     0.00     0  00:00        0.00
  JK-1                 OUTFALL      0.00     0.00     0.00     0  00:00        0.00
  JK-2                 OUTFALL      0.00     0.00     0.00     0  00:00        0.00
  WSC                  OUTFALL      0.19     0.30     0.97     0  03:04        0.30
  CC-storage           STORAGE      0.97     1.73     7.23     0  02:18        1.73
  JK-storage           STORAGE      2.95     4.22     5.02     0  01:46        4.20
  
  
  *******************
  Node Inflow Summary
  *******************
  
  -------------------------------------------------------------------------------------------------
                                  Maximum  Maximum                  Lateral       Total        Flow
                                  Lateral    Total  Time of Max      Inflow      Inflow     Balance
                                   Inflow   Inflow   Occurrence      Volume      Volume       Error
  Node                 Type           LPS      LPS  days hr:min    10^6 ltr    10^6 ltr     Percent
  -------------------------------------------------------------------------------------------------
  WS02003060           JUNCTION     16.53   552.76     0  03:01       0.476        5.91       0.048
  WS02003066           JUNCTION      0.00   536.21     0  03:01           0        5.43       0.031
  WS02003067           JUNCTION      0.00   536.20     0  03:01           0        5.44       0.083
  WS02003069           JUNCTION      0.32   553.06     0  03:02     0.00922        5.91       0.083
  WS02003072           JUNCTION      0.00   553.02     0  03:02           0        5.91       0.141
  WS02003073           JUNCTION      1.82   554.83     0  03:03      0.0524        5.95       0.115
  WS02004401           JUNCTION      0.00   537.05     0  01:57           0        5.55       0.196
  WS02004402           JUNCTION      0.00   536.94     0  02:00           0        5.54       0.198
  WS02004403           JUNCTION      0.00   536.88     0  02:00           0        5.53       0.192
  WS02004404           JUNCTION      0.16   536.75     0  02:01     0.00467        5.52       0.166
  WS02004405           JUNCTION      0.04   536.70     0  02:59      0.0011        5.51       0.228
  WS02004406           JUNCTION      0.00   536.93     0  02:01           0         5.5       0.396
  WS02004407           JUNCTION      0.00   536.63     0  01:58           0        5.48       0.028
  WS02004409           JUNCTION      0.00   536.53     0  01:58           0        5.48       0.063
  WS02004410           JUNCTION      0.00   536.36     0  03:00           0        5.47       0.097
  WS02004411           JUNCTION      0.00   536.29     0  02:01           0        5.47       0.118
  WS02004412           JUNCTION      0.00   536.26     0  03:00           0        5.46       0.153
  WS02004413           JUNCTION      0.00   536.27     0  02:02           0        5.45       0.270
  WS02006109           JUNCTION      1.23   565.30     0  02:03      0.0354         5.6       0.172
  WS02006110           JUNCTION      0.00   566.44     0  02:03           0        5.59       0.132
  WS02006111           JUNCTION      0.00   560.67     0  02:43           0        5.58       0.017
  WS02006112           JUNCTION      0.00   542.63     0  02:35           0        5.58       0.376
  WS02006113           JUNCTION      0.00   572.41     0  02:03           0        5.58       0.037
  WS02006115           JUNCTION      0.00   548.52     0  02:03           0        5.56       0.131
  WS02006116           JUNCTION      0.00   538.45     0  02:07           0        5.55       0.045
  WS02006228           JUNCTION      0.00   562.61     0  02:03           0        5.57       0.055
  WS02006229           JUNCTION      0.00   562.61     0  02:03           0        5.57       0.103
  WS02006230           JUNCTION     10.28   586.95     0  02:30       0.296        5.58       0.100
  WS02006231           JUNCTION      0.00   575.97     0  02:39           0        5.28      -0.034
  WS02006232           JUNCTION      0.00   575.19     0  02:39           0        5.29       0.174
  WS02006234           JUNCTION      0.00   569.95     0  02:39           0        5.28      -0.147
  WS02006235           JUNCTION      0.00   562.96     0  02:39           0        5.33       0.191
  WS02006238           JUNCTION      0.00   424.69     0  02:35           0        4.38      -0.140
  WS02006239           JUNCTION      0.00   422.85     0  02:35           0        4.36      -0.104
  WS02006240           JUNCTION      0.00   419.19     0  03:00           0        4.34      -0.034
  WS02006242           JUNCTION      0.00   420.07     0  03:00           0        4.32       0.028
  WS02006243           JUNCTION      0.00   419.20     0  03:00           0        4.31      -0.051
  WS02006245           JUNCTION      0.00   419.29     0  02:00           0        4.32       0.265
  WS02006247           JUNCTION      0.00   419.80     0  02:00           0        4.33       0.021
  WS02006248           JUNCTION      0.00   421.14     0  02:00           0        4.33       0.042
  WS02006249           JUNCTION      0.00   459.02     0  00:00           0         4.6       0.253
  WS02006251           JUNCTION      0.08   411.38     0  01:41     0.00222         4.6      -0.026
  WS02006252           JUNCTION      0.00   400.00     0  00:00           0        4.59      -0.053
  WS02006256           JUNCTION      0.00   300.00     0  00:00           0        1.42      -0.508
  WSF200               JUNCTION      0.00   536.22     0  03:01           0        5.43       0.013
  YS02001580           JUNCTION      0.00   171.70     0  01:33           0     0.00481       0.971
  YS02001583           JUNCTION      0.00   268.13     0  01:33           0      0.0152     -10.077
  YS02001586           JUNCTION    789.18   789.19     0  01:43        2.07        2.08       0.083
  YS02001590           JUNCTION      0.00   318.06     0  02:04           0        1.52      -0.037
  YS02001593           JUNCTION      0.00   318.00     0  01:50           0        1.52      -0.002
  YS02001596           JUNCTION      0.00   318.19     0  01:52           0        1.52      -0.005
  YS02001600           JUNCTION      0.00   318.01     0  01:52           0        1.52      -0.004
  YS02001601           JUNCTION   1447.68  1765.32     0  01:40        2.82        4.35       0.005
  YS02001602           JUNCTION      0.00   580.25     0  01:33           0        2.49       0.013
  YS02001605           JUNCTION      0.00   580.25     0  01:33           0        2.33       0.012
  YS02001607           JUNCTION      0.00   580.21     0  01:33           0        2.33       0.077
  YS02001610           JUNCTION      0.00   780.76     0  01:42           0        2.69       0.077
  YS02001613           JUNCTION      0.00   552.31     0  01:33           0        2.06       0.077
  YS02001616           JUNCTION      0.00   557.74     0  01:33           0        2.07       0.007
  YS02001619           JUNCTION   1400.33  1400.33     0  01:42        3.32        5.03      -0.007
  YS02001622           JUNCTION      0.00   961.18     0  01:41           0        4.67      -0.009
  YS02001625           JUNCTION      0.00  1377.13     0  01:44           0        4.94       0.182
  YS02001629           JUNCTION      0.00   953.89     0  01:34           0        3.69       0.009
  YS02001633           JUNCTION   1082.73  1425.47     0  01:35        2.07         5.4       0.057
  YS02001641           JUNCTION      0.00  1422.84     0  01:35           0        5.05       0.052
  YS02001644           JUNCTION    971.35  1948.88     0  01:35        1.79        6.84       0.046
  YS02001647           JUNCTION      0.00  1949.95     0  01:35           0        6.26       0.006
  YS02001649           JUNCTION      0.00  2206.83     0  01:35           0        7.91       0.003
  YS02001652           JUNCTION      0.00  1064.65     0  01:37           0        1.65      -0.084
  YS02001655           JUNCTION      0.15  1063.16     0  01:37     0.00443        1.65      -0.060
  YS02001658           JUNCTION      0.00  1062.40     0  01:37           0        1.65      -0.050
  YS02001661           JUNCTION      0.00  1062.55     0  01:37           0        1.65       0.039
  YS02001664           JUNCTION    940.61   940.61     0  01:39        1.65        1.65      -0.036
  YS02001745           JUNCTION    618.34   701.91     0  01:36        0.99       0.991       0.160
  YS02001748           JUNCTION      0.04   971.20     0  01:36      0.0013       0.996      -0.322
  YS02001751           JUNCTION      0.01   671.35     0  01:37    0.000317        1.01       0.066
  YS02001754           JUNCTION      0.26   673.00     0  01:37     0.00749        1.02      -0.193
  YS02001757           JUNCTION      0.00  3620.18     0  01:37           0        12.1       0.041
  YS02001759           JUNCTION    853.83  1562.01     0  01:36        1.37        3.17      -0.010
  YS02001762           JUNCTION      0.00   804.90     0  01:36           0         1.8       0.004
  YS02001765           JUNCTION      0.00   805.03     0  01:36           0         1.8       0.030
  YS02001767           JUNCTION      0.54   807.13     0  01:36      0.0154         1.8      -0.012
  YS02001770           JUNCTION   1199.56  1199.56     0  01:39        2.08        2.13       0.005
  YS02001774           JUNCTION      0.00   602.67     0  01:39           0       0.362       0.231
  YS02001779           JUNCTION      0.01   601.15     0  01:39    0.000144       0.316      -0.356
  YS02001783           JUNCTION      0.00  1168.60     0  01:36           0        4.59       0.005
  YS02001784           JUNCTION      1.06  1170.05     0  01:36      0.0305        4.62       0.010
  YS02001786           JUNCTION      0.06  1169.66     0  01:37     0.00162        4.62       0.012
  YS02001788           JUNCTION      0.07  1171.91     0  01:36     0.00204        4.63       0.007
  YS02001790           JUNCTION      0.15  1174.79     0  01:39     0.00446        4.63       0.021
  YS02001791           JUNCTION      0.00  1288.53     0  01:42           0        4.63      -0.024
  YS02001793           JUNCTION      0.00  1246.00     0  01:43           0        4.63       0.006
  YS02001882           JUNCTION      0.00   114.03     0  01:34           0      0.0137       3.872
  YS02001884           JUNCTION      0.00   151.14     0  01:34           0        0.05       5.407
  YS02001887           JUNCTION    936.93   937.29     0  01:38        1.42        1.46       0.299
  YS02001890           JUNCTION      0.00   937.79     0  01:38           0        1.42       0.361
  YS02001895           JUNCTION      0.00   579.50     0  01:35           0        1.24       0.116
  YS02001898           JUNCTION      0.00   580.33     0  01:35           0        1.24      -0.001
  YS02001901           JUNCTION      0.00   582.88     0  01:35           0        1.24       0.258
  YS02001904           JUNCTION      0.00   583.21     0  01:35           0        1.25       0.216
  YS02001907           JUNCTION      0.00  2128.16     0  01:40           0        4.36       0.407
  YS02001910           JUNCTION      0.00  1568.88     0  01:40           0        3.11       0.229
  YS02001915           JUNCTION   1053.10  1568.84     0  01:40        1.98        3.16       0.041
  YS02001918           JUNCTION      0.00   701.45     0  01:35           0        1.21      -0.032
  YS02001920           JUNCTION      2.87   693.91     0  01:35      0.0827        1.19       0.040
  YS02001923           JUNCTION      0.04   941.58     0  01:35     0.00109        1.08      -0.098
  YS02001926           JUNCTION      0.05  1201.55     0  01:35      0.0015        1.06      -0.247
  YS02001929           JUNCTION    506.64  1073.24     0  01:35        1.04        1.05      -0.318
  YS02006553           JUNCTION      0.00   794.47     0  02:05           0        2.58       0.463
  YS02006556           JUNCTION      0.00   795.12     0  02:05           0        2.59       0.300
  YS02006558           JUNCTION   1232.04  1232.04     0  01:39        2.09        4.64       0.078
  YS02006561           JUNCTION      0.00  1177.11     0  01:35           0        4.59      -0.002
  YS02163301           JUNCTION      0.00   877.59     0  01:34           0        3.68       0.031
  YS02163601           JUNCTION      0.11  1423.63     0  01:35     0.00317        5.04       0.091
  YS02164001           JUNCTION      0.00  1420.86     0  01:35           0        5.04       0.039
  CC-1                 OUTFALL       0.00   683.00     0  00:00           0        3.86       0.000
  CC-2                 OUTFALL       0.00   683.00     0  00:00           0        3.66       0.000
  JK-1                 OUTFALL       0.00  1000.00     0  00:00           0        1.25       0.000
  JK-2                 OUTFALL       0.00  1000.00     0  00:00           0        1.93       0.000
  WSC                  OUTFALL       0.00   554.81     0  03:04           0        5.95       0.000
  CC-storage           STORAGE       0.00  3620.65     0  01:37           0        14.3      -0.090
  JK-storage           STORAGE       0.00  1275.30     0  01:39           0        4.78       0.109
  
  
  **********************
  Node Surcharge Summary
  **********************
  
  Surcharging occurs when water rises above the top of the highest conduit.
  ---------------------------------------------------------------------
                                               Max. Height   Min. Depth
                                   Hours       Above Crown    Below Rim
  Node                 Type      Surcharged         Meters       Meters
  ---------------------------------------------------------------------
  WS02006109           JUNCTION        2.38          0.340        1.480
  WS02006110           JUNCTION        0.94          0.265        1.585
  WS02006112           JUNCTION        0.92          0.068        1.612
  WS02006228           JUNCTION        2.38          0.351        1.849
  WS02006229           JUNCTION        2.39          0.420        2.030
  WS02006230           JUNCTION        0.94          0.279        1.291
  WS02006231           JUNCTION        1.04          0.432        1.098
  WS02006232           JUNCTION        2.40          0.665        0.815
  WS02006234           JUNCTION        1.24          0.658        0.582
  WS02006235           JUNCTION        2.37          0.752        0.538
  WS02006238           JUNCTION        2.39          0.785        0.645
  WS02006239           JUNCTION        2.38          0.749        0.541
  WS02006240           JUNCTION        2.38          0.730        0.660
  WS02006242           JUNCTION        2.40          0.746        0.074
  WS02006243           JUNCTION        2.37          0.670        0.100
  WS02006245           JUNCTION        2.36          0.574        0.276
  WS02006247           JUNCTION        2.37          0.528        0.232
  WS02006248           JUNCTION        2.35          0.380        0.000
  WS02006249           JUNCTION        2.35          0.390        0.000
  WS02006251           JUNCTION        1.05          0.481        0.699
  WS02006252           JUNCTION        2.55          1.100        0.000
  WS02006256           JUNCTION        5.80          2.050        0.000
  YS02001580           JUNCTION        0.78          0.450        0.000
  YS02001583           JUNCTION        0.79          0.500        0.000
  YS02001586           JUNCTION        0.96          0.510        0.000
  YS02001590           JUNCTION        1.04          0.750        0.000
  YS02001593           JUNCTION        1.04          0.743        0.097
  YS02001596           JUNCTION        1.15          0.986        0.084
  YS02001600           JUNCTION        1.31          1.190        0.000
  YS02001601           JUNCTION        1.65          1.440        0.000
  YS02001602           JUNCTION        1.58          1.270        0.000
  YS02001605           JUNCTION        1.53          1.180        0.000
  YS02001607           JUNCTION        1.03          0.680        0.000
  YS02001610           JUNCTION        1.06          0.680        0.000
  YS02001613           JUNCTION        1.02          0.700        0.000
  YS02001616           JUNCTION        0.98          0.610        0.000
  YS02001619           JUNCTION        0.97          0.610        0.000
  YS02001622           JUNCTION        0.97          0.620        0.000
  YS02001625           JUNCTION        1.16          0.780        0.000
  YS02001629           JUNCTION        0.91          0.470        0.000
  YS02001633           JUNCTION        1.19          1.030        0.030
  YS02001641           JUNCTION        1.15          0.962        0.138
  YS02001644           JUNCTION        1.13          0.920        0.000
  YS02001647           JUNCTION        0.92          0.793        0.107
  YS02001649           JUNCTION        1.07          1.050        0.000
  YS02001652           JUNCTION        0.84          1.065        0.065
  YS02001655           JUNCTION        0.61          1.079        0.121
  YS02001658           JUNCTION        0.30          0.995        0.305
  YS02001661           JUNCTION        0.05          0.858        0.532
  YS02001664           JUNCTION        0.01          0.529        0.781
  YS02001745           JUNCTION        0.01          1.110        0.240
  YS02001748           JUNCTION        0.22          1.190        0.000
  YS02001751           JUNCTION        0.42          1.200        0.000
  YS02001754           JUNCTION        0.72          1.150        0.000
  YS02001757           JUNCTION        1.15          1.210        0.000
  YS02001759           JUNCTION        1.04          1.206        0.004
  YS02001762           JUNCTION        1.01          1.150        0.000
  YS02001765           JUNCTION        0.95          1.100        0.000
  YS02001767           JUNCTION        0.91          1.030        0.000
  YS02001770           JUNCTION        0.87          0.920        0.000
  YS02001774           JUNCTION        0.98          1.004        0.046
  YS02001779           JUNCTION        0.70          0.680        0.000
  YS02001783           JUNCTION        0.67          0.550        1.050
  YS02001784           JUNCTION        0.65          0.407        1.083
  YS02001786           JUNCTION        0.54          0.174        1.256
  YS02001882           JUNCTION        0.61          0.830        0.000
  YS02001884           JUNCTION        0.62          0.870        0.000
  YS02001887           JUNCTION        0.66          0.879        0.071
  YS02001890           JUNCTION        0.67          0.760        0.000
  YS02001895           JUNCTION        0.60          0.750        0.000
  YS02001898           JUNCTION        0.59          0.740        0.000
  YS02001901           JUNCTION        0.64          0.870        0.000
  YS02001904           JUNCTION        0.63          0.850        0.000
  YS02001907           JUNCTION        0.87          0.950        0.000
  YS02001910           JUNCTION        0.70          1.096        0.004
  YS02001915           JUNCTION        0.61          1.000        0.000
  YS02001918           JUNCTION        0.52          0.810        0.000
  YS02001920           JUNCTION        0.53          1.140        0.000
  YS02001923           JUNCTION        0.17          0.820        0.000
  YS02001926           JUNCTION        0.21          0.900        0.000
  YS02001929           JUNCTION        0.01          0.780        0.000
  YS02006553           JUNCTION        0.90          1.003        0.187
  YS02006556           JUNCTION        0.79          0.978        0.372
  YS02006558           JUNCTION        0.78          0.972        0.428
  YS02006561           JUNCTION        0.48          0.268        0.882
  YS02163301           JUNCTION        1.17          0.940        0.090
  YS02163601           JUNCTION        1.23          1.054        0.026
  YS02164001           JUNCTION        1.15          0.967        0.133
  
  
  *********************
  Node Flooding Summary
  *********************
  
  Flooding refers to all water that overflows a node, whether it ponds or not.
  --------------------------------------------------------------------------
                                                             Total   Maximum
                                 Maximum   Time of Max       Flood    Ponded
                        Hours       Rate    Occurrence      Volume     Depth
  Node                 Flooded       LPS   days hr:min    10^6 ltr    Meters
  --------------------------------------------------------------------------
  WS02006248              0.01     83.37      0  01:41       0.000     0.000
  WS02006249              1.04    130.04      0  01:41       0.259     0.000
  WS02006252              0.01    245.63      0  00:00       0.000     0.000
  WS02006256              1.31    293.19      0  00:00       0.456     0.000
  YS02001580              0.01    113.83      0  01:33       0.001     0.000
  YS02001583              0.01    239.05      0  01:34       0.000     0.000
  YS02001586              0.64    471.55      0  01:42       0.547     0.000
  YS02001590              0.01    126.22      0  01:32       0.000     0.000
  YS02001600              0.01      4.91      0  01:33       0.000     0.000
  YS02001601              0.87   1367.51      0  01:40       1.859     0.000
  YS02001602              0.77     62.05      0  01:38       0.158     0.000
  YS02001605              0.01      7.81      0  01:33       0.000     0.000
  YS02001607              0.01     74.70      0  01:33       0.000     0.000
  YS02001610              0.68    780.61      0  01:42       0.980     0.000
  YS02001613              0.01      2.22      0  01:34       0.000     0.000
  YS02001616              0.01    210.24      0  01:33       0.000     0.000
  YS02001619              0.01    237.25      0  01:34       0.001     0.000
  YS02001622              0.01    293.42      0  01:34       0.001     0.000
  YS02001625              0.66   1377.11      0  01:44       1.591     0.000
  YS02001629              0.15    386.28      0  01:34       0.093     0.000
  YS02001644              0.25   1090.86      0  01:37       0.566     0.000
  YS02001649              0.01    202.16      0  01:37       0.002     0.000
  YS02001748              0.01    345.13      0  01:36       0.001     0.000
  YS02001751              0.01    359.64      0  01:36       0.001     0.000
  YS02001754              0.01     68.51      0  01:36       0.000     0.000
  YS02001757              0.01     92.24      0  01:36       0.001     0.000
  YS02001762              0.01     26.15      0  01:37       0.000     0.000
  YS02001765              0.01     19.81      0  01:36       0.000     0.000
  YS02001767              0.01     11.65      0  01:36       0.000     0.000
  YS02001770              0.01     92.42      0  01:37       0.002     0.000
  YS02001779              0.23    601.12      0  01:39       0.296     0.000
  YS02001882              0.01     64.22      0  01:34       0.000     0.000
  YS02001884              0.01     71.68      0  01:34       0.000     0.000
  YS02001890              0.21    416.04      0  01:38       0.168     0.000
  YS02001895              0.01    228.52      0  01:34       0.000     0.000
  YS02001898              0.01    281.61      0  01:34       0.001     0.000
  YS02001901              0.01     26.87      0  01:34       0.000     0.000
  YS02001904              0.01     47.56      0  01:34       0.000     0.000
  YS02001907              0.46   2128.02      0  01:40       1.784     0.000
  YS02001915              0.01    212.59      0  01:34       0.000     0.000
  YS02001918              0.01    227.52      0  01:35       0.004     0.000
  YS02001920              0.01     60.91      0  01:36       0.000     0.000
  YS02001923              0.01    146.79      0  01:36       0.000     0.000
  YS02001926              0.01    284.09      0  01:35       0.003     0.000
  YS02001929              0.01   1004.79      0  01:35       0.005     0.000
  
  
  **********************
  Storage Volume Summary
  **********************
  
  ------------------------------------------------------------------------------------------------
                         Average    Avg   Evap  Exfil     Maximum    Max    Time of Max    Maximum
                          Volume   Pcnt   Pcnt   Pcnt      Volume   Pcnt     Occurrence    Outflow
  Storage Unit           1000 m³   Full   Loss   Loss     1000 m³   Full    days hr:min        LPS
  ------------------------------------------------------------------------------------------------
  CC-storage               2.698   42.1    0.0    0.0       4.826   75.3       0  02:18    1783.53
  JK-storage               0.148   50.8    0.0    0.0       0.212   72.8       0  01:46    2300.00
  
  
  ***********************
  Outfall Loading Summary
  ***********************
  
  -----------------------------------------------------------
                         Flow       Avg       Max       Total
                         Freq      Flow      Flow      Volume
  Outfall Node           Pcnt       LPS       LPS    10^6 ltr
  -----------------------------------------------------------
  CC-1                  20.59    683.00    683.00       3.865
  CC-2                  19.78    683.00    683.00       3.662
  JK-1                   4.99   1000.00   1000.00       1.246
  JK-2                   7.61   1000.00   1000.00       1.934
  WSC                   99.96    259.71    554.81       5.947
  -----------------------------------------------------------
  System                30.58   3625.71   3920.55      16.654
  
  
  ********************
  Link Flow Summary
  ********************
  
  -----------------------------------------------------------------------------
                                 Maximum  Time of Max   Maximum    Max/    Max/
                                  |Flow|   Occurrence   |Veloc|    Full    Full
  Link                 Type          LPS  days hr:min     m/sec    Flow   Depth
  -----------------------------------------------------------------------------
  1                    CONDUIT    554.81     0  03:04      2.83    0.19    0.30
  WS02003060WS02003069 CONDUIT    552.74     0  03:02      1.64    0.22    0.34
  WS02003066WSF200     CONDUIT    536.22     0  03:01      2.85    0.09    0.22
  WS02003067WS02003066 CONDUIT    536.21     0  03:01      1.21    0.17    0.42
  WS02003069WS02003072 CONDUIT    553.02     0  03:02      1.37    0.27    0.39
  WS02003072WS02003073 CONDUIT    553.00     0  03:03      1.43    1.19    0.37
  WS02004401WS02004402 CONDUIT    536.94     0  02:00      1.23    0.64    0.86
  WS02004402WS02004403 CONDUIT    536.88     0  02:00      1.24    0.77    0.88
  WS02004403WS02004404 CONDUIT    536.59     0  02:01      1.17    0.39    0.93
  WS02004404WS02004405 CONDUIT    536.66     0  02:59      1.43    5.26    0.96
  WS02004405WS02004406 CONDUIT    536.93     0  02:01      1.39    1.06    0.96
  WS02004406WS02004407 CONDUIT    536.63     0  01:58      1.04    0.24    0.63
  WS02004407WS02004409 CONDUIT    536.53     0  01:58      1.56    0.19    0.48
  WS02004409WS02004410 CONDUIT    536.36     0  03:00      1.04    0.69    0.67
  WS02004410WS02004411 CONDUIT    536.29     0  02:01      0.97    0.73    0.69
  WS02004411WS02004412 CONDUIT    536.26     0  03:00      0.92    0.76    0.69
  WS02004412WS02004413 CONDUIT    536.27     0  02:02      0.88    0.36    0.78
  WS02004413WS02003067 CONDUIT    536.20     0  03:01      1.11    0.23    0.59
  WS02006109WS02006110 CONDUIT    566.44     0  02:03      1.13    1.09    1.00
  WS02006110WS02006113 CONDUIT    572.41     0  02:03      1.38    0.52    0.79
  WS02006111WS02006112 CONDUIT    542.63     0  02:35      1.96    0.26    0.67
  WS02006112WS02006115 CONDUIT    548.52     0  02:03      0.87    0.32    0.87
  WS02006113WS02006111 CONDUIT    560.67     0  02:43      2.46    0.67    0.46
  WS02006115WS02006116 CONDUIT    538.45     0  02:07      1.19    0.69    0.76
  WS02006116WS02004401 CONDUIT    537.05     0  01:57      1.22    0.74    0.84
  WS02006228WS02006109 CONDUIT    564.07     0  02:03      1.12    2.46    1.00
  WS02006229WS02006228 CONDUIT    562.61     0  02:03      1.14    1.86    1.00
  WS02006230WS02006229 CONDUIT    562.61     0  02:03      1.46   12.52    1.00
  WS02006231WS02006230 CONDUIT    576.67     0  02:30      1.57    8.75    1.00
  WS02006232WS02006231 CONDUIT    575.97     0  02:39      1.50    1.21    1.00
  WS02006234WS02006232 CONDUIT    575.19     0  02:39      1.49    1.16    1.00
  WS02006235WS02006234 CONDUIT    569.95     0  02:39      1.48    6.01    1.00
  WS02006238WS02006235 CONDUIT    426.69     0  02:35      1.45    0.95    1.00
  WS02006239WS02006238 CONDUIT    424.69     0  02:35      1.10    1.36    1.00
  WS02006240WS02006239 CONDUIT    422.85     0  02:35      1.24    1.33    1.00
  WS02006242WS02006240 CONDUIT    419.19     0  03:00      1.13    1.66    1.00
  WS02006243WS02006242 CONDUIT    420.07     0  03:00      1.40    0.90    1.00
  WS02006245WS02006243 CONDUIT    419.20     0  03:00      1.45    1.24    1.00
  WS02006247WS02006245 CONDUIT    419.29     0  02:00      1.43    3.32    1.00
  WS02006248WS02006247 CONDUIT    419.80     0  02:00      1.44    0.91    1.00
  WS02006249WS02006248 CONDUIT    421.14     0  02:00      1.36    2.31    1.00
  WS02006251WS02006249 CONDUIT    459.02     0  00:00      1.99    1.32    1.00
  WS02006252WS02006251 CONDUIT    411.30     0  01:41     25.30    1.51    1.00
  WS02006256WS02006235 CONDUIT    288.91     0  00:00      4.23    3.06    1.00
  WSF200WS02003060     CONDUIT    536.23     0  03:01      2.06    0.12    0.28
  YS02001580YS02001583 CONDUIT    171.70     0  01:33      0.90    0.67    1.00
  YS02001583YS02001586 CONDUIT    202.71     0  01:33      0.92    0.31    1.00
  YS02001586YS02001590 CONDUIT    318.06     0  02:04      1.28    0.56    1.00
  YS02001590YS02001593 CONDUIT    318.00     0  01:50      1.12    2.00    1.00
  YS02001593YS02001596 CONDUIT    318.19     0  01:52      1.73    0.50    1.00
  YS02001596YS02001600 CONDUIT    318.01     0  01:52      1.22    0.62    1.00
  YS02001600YS02001601 CONDUIT    317.90     0  02:05      1.12    0.55    1.00
  YS02001601YS02001602 CONDUIT    580.25     0  01:33      2.05    2.10    1.00
  YS02001602YS02001605 CONDUIT    580.25     0  01:33      2.05   12.28    1.00
  YS02001605YS02001607 CONDUIT    580.21     0  01:33      2.05    3.18    1.00
  YS02001607YS02001610 CONDUIT    552.43     0  01:33      0.73    0.53    1.00
  YS02001610YS02001613 CONDUIT    552.31     0  01:33      0.70    0.64    1.00
  YS02001613YS02001616 CONDUIT    557.74     0  01:33      0.71    0.48    1.00
  YS02001616YS02001619 CONDUIT    496.06     0  01:33      0.69    0.86    1.00
  YS02001619YS02001622 CONDUIT    961.18     0  01:41      1.31    1.42    1.00
  YS02001622YS02001625 CONDUIT    961.97     0  01:41      1.22    0.51    1.00
  YS02001625YS02001629 CONDUIT    953.89     0  01:34      1.21    0.45    1.00
  YS02001629YS02163301 CONDUIT    877.59     0  01:34      1.12    1.08    1.00
  YS02001633YS02163601 CONDUIT   1423.52     0  01:35      1.81    1.49    1.00
  YS02001641YS02001644 CONDUIT   1425.04     0  01:35      1.81    4.61    1.00
  YS02001644YS02001647 CONDUIT   1949.95     0  01:35      2.48    1.15    1.00
  YS02001647YS02001649 CONDUIT   1951.23     0  01:35      2.48    1.03    1.00
  YS02001649YS02001757 CONDUIT   2208.43     0  01:35      2.81    1.34    1.00
  YS02001652YS02001649 CONDUIT   1064.60     0  01:37      1.36    0.53    1.00
  YS02001655YS02001652 CONDUIT   1064.65     0  01:37      1.58    0.52    1.00
  YS02001658YS02001655 CONDUIT   1063.00     0  01:37      2.06    0.45    1.00
  YS02001661YS02001658 CONDUIT   1062.40     0  01:37      2.47    0.42    1.00
  YS02001664YS02001661 CONDUIT   1062.55     0  01:37      2.59    0.33    1.00
  YS02001745YS02001748 CONDUIT    669.01     0  01:37      2.46    0.26    1.00
  YS02001748YS02001751 CONDUIT    671.34     0  01:37      1.93    0.34    1.00
  YS02001751YS02001754 CONDUIT    672.74     0  01:37      1.60    0.32    1.00
  YS02001754YS02001757 CONDUIT    674.85     0  01:37      0.86    0.27    1.00
  YS02001757CaochengTiaoxuchi CONDUIT   3620.65     0  01:37      4.85    1.57    1.00
  YS02001759YS02001757 CONDUIT   1564.04     0  01:36      1.99    1.11    1.00
  YS02001762YS02001759 CONDUIT    809.48     0  01:36      1.03    0.93    1.00
  YS02001765YS02001762 CONDUIT    804.90     0  01:36      1.02    0.75    1.00
  YS02001767YS02001765 CONDUIT    805.03     0  01:36      1.02    1.01    1.00
  YS02001770YS02001767 CONDUIT    806.59     0  01:36      1.03    3.19    1.00
  YS02001774YS02001770 CONDUIT    602.67     0  01:39      0.77    0.38    1.00
  YS02001779YS02001774 CONDUIT    601.15     0  01:39      0.77    0.30    1.00
  YS02001783YS02001784 CONDUIT   1168.99     0  01:36      2.33    1.61    1.00
  YS02001784YS02001785 CONDUIT   1169.61     0  01:37      2.33    2.72    1.00
  YS02001786YS02001788 CONDUIT   1171.84     0  01:36      2.50    2.26    0.89
  YS02001788YS02001790 CONDUIT   1174.63     0  01:39      2.75    0.87    0.84
  YS02001790YS02001791 CONDUIT   1288.53     0  01:42      3.43    1.40    0.70
  YS02001791YS02001793 CONDUIT   1246.00     0  01:43      6.80    0.54    0.45
  YS02001793JiankangQianchi CONDUIT   1275.30     0  01:39      2.53    0.10    0.65
  YS02001882YS02001884 CONDUIT    114.03     0  01:34      0.17    0.13    1.00
  YS02001884YS02001887 CONDUIT    151.14     0  01:34      0.19    0.20    1.00
  YS02001887YS02001890 CONDUIT    937.79     0  01:38      1.19    1.60    1.00
  YS02001890YS02001895 CONDUIT    579.50     0  01:35      0.74    0.27    1.00
  YS02001895YS02001898 CONDUIT    580.33     0  01:35      0.74    1.01    1.00
  YS02001898YS02001901 CONDUIT    582.88     0  01:35      0.74    0.38    1.00
  YS02001901YS02001904 CONDUIT    583.21     0  01:35      0.74    0.90    1.00
  YS02001904YS02001907 CONDUIT    584.16     0  01:35      0.74    0.20    1.00
  YS02001907YS02006553 CONDUIT    794.47     0  02:05      0.88    0.93    1.00
  YS02001910YS02001907 CONDUIT   1568.91     0  01:40      2.00    0.88    1.00
  YS02001915YS02001910 CONDUIT   1568.88     0  01:40      2.00    0.78    1.00
  YS02001918YS02001915 CONDUIT    701.45     0  01:35      0.90    0.39    1.00
  YS02001920YS02001918 CONDUIT    691.04     0  01:35      0.88    0.67    1.00
  YS02001923YS02001920 CONDUIT    715.11     0  01:35      0.97    0.32    1.00
  YS02001926YS02001923 CONDUIT    952.52     0  01:35      1.39    1.36    1.00
  YS02001929YS02001926 CONDUIT    773.56     0  01:35      1.23    0.37    1.00
  YS02006553YS02006556 CONDUIT    795.12     0  02:05      1.01    0.68    1.00
  YS02006556YS02006558 CONDUIT    798.21     0  02:05      1.02    0.63    1.00
  YS02006558YS02006561 CONDUIT   1177.11     0  01:35      4.16    2.60    1.00
  YS02006561YS02001783 CONDUIT   1168.60     0  01:36      2.32    0.61    1.00
  YS02163301YS02001633 CONDUIT    877.35     0  01:34      1.12    0.82    1.00
  YS02163601YS02164001 CONDUIT   1420.86     0  01:35      1.81    1.26    1.00
  YS02164001YS02001641 CONDUIT   1422.84     0  01:35      1.81    1.94    1.00
  CC-R1                PUMP       683.00     0  00:00              1.00
  CC-R2                PUMP       683.00     0  00:00              1.00
  CC-S1                PUMP       200.00     0  00:00              1.00
  CC-S2                PUMP       200.00     0  00:00              1.00
  JK-R1                PUMP      1000.00     0  00:00              1.00
  JK-R2                PUMP      1000.00     0  00:00              1.00
  JK-S                 PUMP       300.00     0  00:00              1.00
  
  
  ***************************
  Flow Classification Summary
  ***************************
  
  -------------------------------------------------------------------------------------
                      Adjusted    ---------- Fraction of Time in Flow Class ---------- 
                       /Actual         Up    Down  Sub   Sup   Up    Down  Norm  Inlet 
  Conduit               Length    Dry  Dry   Dry   Crit  Crit  Crit  Crit  Ltd   Ctrl  
  -------------------------------------------------------------------------------------
  1                       1.00   0.00  0.00  0.00  0.00  1.00  0.00  0.00  0.40  0.00
  WS02003060WS02003069    1.00   0.00  0.00  0.00  0.98  0.02  0.00  0.00  0.65  0.00
  WS02003066WSF200        1.00   0.06  0.00  0.00  0.00  0.94  0.00  0.00  0.81  0.00
  WS02003067WS02003066    1.00   0.05  0.01  0.00  0.94  0.00  0.00  0.00  0.00  0.00
  WS02003069WS02003072    1.00   0.00  0.00  0.00  0.99  0.01  0.00  0.00  0.69  0.00
  WS02003072WS02003073    1.00   0.00  0.00  0.00  0.00  0.00  0.00  1.00  0.00  0.00
  WS02004401WS02004402    1.00   0.02  0.00  0.00  0.98  0.00  0.00  0.00  0.00  0.00
  WS02004402WS02004403    1.00   0.02  0.00  0.00  0.98  0.00  0.00  0.00  0.00  0.00
  WS02004403WS02004404    1.00   0.00  0.03  0.00  0.97  0.00  0.00  0.00  0.00  0.00
  WS02004404WS02004405    1.00   0.00  0.00  0.00  1.00  0.00  0.00  0.00  0.01  0.00
  WS02004405WS02004406    1.00   0.00  0.00  0.00  1.00  0.00  0.00  0.00  0.00  0.00
  WS02004406WS02004407    1.00   0.00  0.03  0.00  0.96  0.00  0.00  0.00  0.00  0.00
  WS02004407WS02004409    1.00   0.04  0.00  0.00  0.95  0.01  0.00  0.00  0.95  0.00
  WS02004409WS02004410    1.00   0.04  0.00  0.00  0.96  0.00  0.00  0.00  0.00  0.00
  WS02004410WS02004411    1.00   0.04  0.00  0.00  0.96  0.00  0.00  0.00  0.00  0.00
  WS02004411WS02004412    1.00   0.04  0.00  0.00  0.96  0.00  0.00  0.00  0.00  0.00
  WS02004412WS02004413    1.00   0.04  0.00  0.00  0.96  0.00  0.00  0.00  0.00  0.00
  WS02004413WS02003067    1.00   0.04  0.01  0.00  0.00  0.00  0.95  0.00  0.00  0.00
  WS02006109WS02006110    1.00   0.00  0.01  0.00  0.98  0.00  0.01  0.00  0.00  0.00
  WS02006110WS02006113    1.00   0.01  0.01  0.00  0.98  0.00  0.00  0.00  0.00  0.00
  WS02006111WS02006112    1.00   0.02  0.00  0.00  0.98  0.00  0.00  0.00  0.98  0.00
  WS02006112WS02006115    1.00   0.02  0.00  0.00  0.97  0.00  0.00  0.00  0.00  0.00
  WS02006113WS02006111    1.00   0.02  0.00  0.00  0.00  0.98  0.00  0.00  0.15  0.00
  WS02006115WS02006116    1.00   0.02  0.00  0.00  0.97  0.00  0.00  0.01  0.00  0.00
  WS02006116WS02004401    1.00   0.02  0.00  0.00  0.98  0.00  0.00  0.00  0.00  0.00
  WS02006228WS02006109    1.00   0.00  0.00  0.00  1.00  0.00  0.00  0.00  0.00  0.00
  WS02006229WS02006228    1.00   0.00  0.00  0.00  0.99  0.00  0.00  0.01  0.00  0.00
  WS02006230WS02006229    1.00   0.00  0.00  0.00  0.99  0.00  0.00  0.01  0.00  0.00
  WS02006231WS02006230    1.00   0.00  0.00  0.00  0.31  0.00  0.69  0.00  0.00  0.00
  WS02006232WS02006231    1.00   0.00  0.00  0.00  0.99  0.00  0.01  0.00  0.00  0.00
  WS02006234WS02006232    1.00   0.00  0.00  0.00  1.00  0.00  0.00  0.00  0.14  0.00
  WS02006235WS02006234    1.00   0.00  0.00  0.00  0.79  0.00  0.21  0.00  0.00  0.00
  WS02006238WS02006235    1.00   0.00  0.00  0.00  1.00  0.00  0.00  0.00  0.00  0.00
  WS02006239WS02006238    1.00   0.00  0.00  0.00  1.00  0.00  0.00  0.00  0.27  0.00
  WS02006240WS02006239    1.00   0.00  0.00  0.00  0.64  0.00  0.00  0.36  0.03  0.00
  WS02006242WS02006240    1.00   0.00  0.00  0.00  0.98  0.00  0.01  0.00  0.00  0.00
  WS02006243WS02006242    1.00   0.00  0.00  0.00  0.99  0.00  0.00  0.01  0.48  0.00
  WS02006245WS02006243    1.00   0.00  0.00  0.00  0.74  0.00  0.00  0.26  0.01  0.00
  WS02006247WS02006245    1.00   0.00  0.00  0.00  0.98  0.00  0.00  0.02  0.00  0.00
  WS02006248WS02006247    1.00   0.00  0.00  0.00  0.99  0.00  0.00  0.01  0.26  0.00
  WS02006249WS02006248    1.00   0.00  0.00  0.00  0.53  0.00  0.47  0.00  0.00  0.00
  WS02006251WS02006249    1.00   0.00  0.00  0.00  0.99  0.01  0.00  0.00  0.49  0.00
  WS02006252WS02006251    1.00   0.00  0.51  0.00  0.13  0.00  0.36  0.00  0.00  0.00
  WS02006256WS02006235    1.00   0.00  0.00  0.00  0.99  0.01  0.00  0.00  0.00  0.00
  WSF200WS02003060        1.00   0.00  0.06  0.00  0.34  0.60  0.00  0.00  0.51  0.00
  YS02001580YS02001583    1.00   0.19  0.59  0.00  0.22  0.00  0.00  0.00  0.68  0.00
  YS02001583YS02001586    1.00   0.42  0.30  0.00  0.28  0.00  0.00  0.00  0.68  0.00
  YS02001586YS02001590    1.00   0.13  0.00  0.00  0.43  0.04  0.00  0.40  0.33  0.00
  YS02001590YS02001593    1.00   0.13  0.01  0.00  0.14  0.00  0.72  0.00  0.00  0.00
  YS02001593YS02001596    1.00   0.13  0.00  0.00  0.16  0.01  0.00  0.69  0.02  0.00
  YS02001596YS02001600    1.00   0.13  0.00  0.00  0.22  0.01  0.00  0.63  0.04  0.00
  YS02001600YS02001601    1.00   0.13  0.01  0.00  0.86  0.00  0.00  0.00  0.59  0.00
  YS02001601YS02001602    1.00   0.13  0.01  0.00  0.87  0.00  0.00  0.00  0.00  0.00
  YS02001602YS02001605    1.00   0.13  0.00  0.00  0.87  0.00  0.00  0.00  0.00  0.00
  YS02001605YS02001607    1.00   0.14  0.00  0.00  0.86  0.00  0.00  0.00  0.00  0.00
  YS02001607YS02001610    1.00   0.13  0.01  0.00  0.86  0.00  0.00  0.00  0.01  0.00
  YS02001610YS02001613    1.00   0.13  0.00  0.00  0.87  0.00  0.00  0.00  0.00  0.00
  YS02001613YS02001616    1.00   0.13  0.00  0.00  0.87  0.00  0.00  0.00  0.00  0.00
  YS02001616YS02001619    1.00   0.13  0.00  0.00  0.87  0.00  0.00  0.00  0.00  0.00
  YS02001619YS02001622    1.00   0.13  0.00  0.00  0.87  0.00  0.00  0.00  0.29  0.00
  YS02001622YS02001625    1.00   0.13  0.00  0.00  0.87  0.00  0.00  0.00  0.03  0.00
  YS02001625YS02001629    1.00   0.13  0.04  0.00  0.19  0.00  0.64  0.00  0.00  0.00
  YS02001629YS02163301    1.00   0.15  0.01  0.00  0.84  0.00  0.00  0.00  0.00  0.00
  YS02001633YS02163601    1.00   0.00  0.01  0.00  0.99  0.00  0.00  0.00  0.14  0.00
  YS02001641YS02001644    1.00   0.00  0.01  0.00  0.99  0.00  0.00  0.00  0.00  0.00
  YS02001644YS02001647    1.00   0.00  0.16  0.00  0.84  0.00  0.00  0.00  0.00  0.00
  YS02001647YS02001649    1.00   0.00  0.16  0.00  0.58  0.25  0.00  0.00  0.55  0.00
  YS02001649YS02001757    1.00   0.00  0.00  0.00  0.91  0.09  0.00  0.00  0.42  0.00
  YS02001652YS02001649    1.00   0.00  0.00  0.00  0.97  0.03  0.00  0.00  0.70  0.00
  YS02001655YS02001652    1.00   0.00  0.00  0.00  0.22  0.01  0.00  0.77  0.05  0.00
  YS02001658YS02001655    1.00   0.00  0.14  0.00  0.70  0.16  0.00  0.00  0.66  0.00
  YS02001661YS02001658    1.00   0.14  0.00  0.00  0.54  0.32  0.00  0.00  0.70  0.00
  YS02001664YS02001661    1.00   0.13  0.00  0.00  0.77  0.10  0.00  0.00  0.84  0.00
  YS02001745YS02001748    1.00   0.00  0.00  0.00  0.14  0.01  0.00  0.86  0.05  0.00
  YS02001748YS02001751    1.00   0.00  0.00  0.00  0.86  0.14  0.00  0.00  0.77  0.00
  YS02001751YS02001754    1.00   0.00  0.00  0.00  0.19  0.00  0.00  0.81  0.02  0.00
  YS02001754YS02001757    1.00   0.00  0.00  0.00  1.00  0.00  0.00  0.00  0.75  0.00
  YS02001757CaochengTiaoxuchi    1.00   0.00  0.00  0.00  0.98  0.02  0.00  0.00  0.52  0.00
  YS02001759YS02001757    1.00   0.00  0.00  0.00  0.99  0.01  0.00  0.00  0.51  0.00
  YS02001762YS02001759    1.00   0.00  0.00  0.00  1.00  0.00  0.00  0.00  0.05  0.00
  YS02001765YS02001762    1.00   0.00  0.00  0.00  1.00  0.00  0.00  0.00  0.64  0.00
  YS02001767YS02001765    1.00   0.00  0.00  0.00  1.00  0.00  0.00  0.00  0.01  0.00
  YS02001770YS02001767    1.00   0.00  0.00  0.00  1.00  0.00  0.00  0.00  0.00  0.00
  YS02001774YS02001770    1.00   0.00  0.13  0.00  0.70  0.00  0.17  0.00  0.02  0.00
  YS02001779YS02001774    1.00   0.00  0.00  0.00  1.00  0.00  0.00  0.00  0.76  0.00
  YS02001783YS02001784    1.00   0.00  0.17  0.00  0.83  0.00  0.00  0.00  0.55  0.00
  YS02001784YS02001785    1.00   0.00  0.00  0.00  1.00  0.00  0.00  0.00  0.16  0.00
  YS02001786YS02001788    1.00   0.00  0.00  0.00  0.79  0.21  0.00  0.00  0.00  0.00
  YS02001788YS02001790    1.00   0.00  0.00  0.00  0.20  0.80  0.00  0.00  0.79  0.00
  YS02001790YS02001791    1.00   0.00  0.00  0.00  0.01  0.99  0.00  0.00  0.16  0.00
  YS02001791YS02001793    1.00   0.00  0.00  0.00  0.00  1.00  0.00  0.00  0.01  0.00
  YS02001793JiankangQianchi    1.00   0.00  0.00  0.00  0.97  0.03  0.00  0.00  0.95  0.00
  YS02001882YS02001884    1.00   0.15  0.01  0.00  0.85  0.00  0.00  0.00  0.00  0.00
  YS02001884YS02001887    1.00   0.06  0.05  0.00  0.89  0.00  0.00  0.00  0.00  0.00
  YS02001887YS02001890    1.00   0.00  0.00  0.00  0.97  0.00  0.03  0.00  0.00  0.00
  YS02001890YS02001895    1.00   0.00  0.15  0.00  0.84  0.00  0.00  0.00  0.00  0.00
  YS02001895YS02001898    1.00   0.16  0.00  0.00  0.83  0.00  0.01  0.00  0.00  0.00
  YS02001898YS02001901    1.00   0.16  0.00  0.00  0.84  0.00  0.00  0.00  0.01  0.00
  YS02001901YS02001904    1.00   0.16  0.00  0.00  0.84  0.00  0.00  0.00  0.00  0.00
  YS02001904YS02001907    1.00   0.00  0.16  0.00  0.84  0.00  0.00  0.00  0.00  0.00
  YS02001907YS02006553    1.00   0.00  0.02  0.00  0.98  0.00  0.00  0.00  0.00  0.00
  YS02001910YS02001907    1.00   0.00  0.00  0.00  0.97  0.00  0.00  0.03  0.12  0.00
  YS02001915YS02001910    1.00   0.00  0.00  0.00  0.97  0.03  0.00  0.00  0.14  0.00
  YS02001918YS02001915    1.00   0.00  0.01  0.00  0.98  0.02  0.00  0.00  0.73  0.00
  YS02001920YS02001918    1.00   0.00  0.01  0.00  0.99  0.00  0.00  0.00  0.00  0.00
  YS02001923YS02001920    1.00   0.00  0.00  0.00  1.00  0.00  0.00  0.00  0.91  0.00
  YS02001926YS02001923    1.00   0.00  0.07  0.00  0.08  0.00  0.85  0.00  0.00  0.00
  YS02001929YS02001926    1.00   0.00  0.13  0.00  0.87  0.00  0.00  0.00  0.80  0.00
  YS02006553YS02006556    1.00   0.01  0.00  0.00  0.99  0.00  0.00  0.00  0.03  0.00
  YS02006556YS02006558    1.00   0.00  0.00  0.00  1.00  0.00  0.00  0.00  0.00  0.00
  YS02006558YS02006561    1.00   0.17  0.00  0.00  0.07  0.76  0.00  0.00  0.18  0.00
  YS02006561YS02001783    1.00   0.17  0.00  0.00  0.10  0.73  0.00  0.00  0.67  0.00
  YS02163301YS02001633    1.00   0.00  0.15  0.00  0.85  0.00  0.00  0.00  0.00  0.00
  YS02163601YS02164001    1.00   0.00  0.08  0.00  0.92  0.00  0.00  0.00  0.00  0.00
  YS02164001YS02001641    1.00   0.01  0.07  0.00  0.92  0.00  0.00  0.00  0.05  0.00
  
  
  *************************
  Conduit Surcharge Summary
  *************************
  
  ----------------------------------------------------------------------------
                                                           Hours        Hours 
                         --------- Hours Full --------   Above Full   Capacity
  Conduit                Both Ends  Upstream  Dnstream   Normal Flow   Limited
  ----------------------------------------------------------------------------
  WS02003072WS02003073        0.01      0.01      0.01      1.25         0.01
  WS02004404WS02004405        0.01      0.01      0.01      3.66         0.01
  WS02004405WS02004406        0.01      0.01      0.01      0.85         0.01
  WS02006109WS02006110        0.94      0.94      2.41      1.01         0.01
  WS02006110WS02006113        0.01      0.01      2.40      0.01         0.01
  WS02006111WS02006112        0.01      0.01      2.56      0.01         0.01
  WS02006112WS02006115        0.01      0.01      0.92      0.01         0.01
  WS02006228WS02006109        2.38      2.40      2.38      2.93         2.38
  WS02006229WS02006228        2.38      2.39      2.38      2.59         2.37
  WS02006230WS02006229        2.42      2.50      2.42      4.37         2.42
  WS02006231WS02006230        0.94      0.94      1.06      4.03         0.01
  WS02006232WS02006231        1.03      1.03      2.40      1.08         0.01
  WS02006234WS02006232        2.36      2.36      2.40      1.06         1.05
  WS02006235WS02006234        1.23      1.24      2.37      3.91         0.01
  WS02006238WS02006235        2.38      2.38      2.41      0.01         0.01
  WS02006239WS02006238        2.39      2.40      2.39      2.44         2.26
  WS02006240WS02006239        2.37      2.38      2.37      2.44         2.15
  WS02006242WS02006240        2.38      2.38      2.42      2.56         0.01
  WS02006243WS02006242        2.38      2.38      2.40      0.01         0.02
  WS02006245WS02006243        2.37      2.37      2.37      1.48         1.49
  WS02006247WS02006245        2.36      2.37      2.36      3.77         2.36
  WS02006248WS02006247        2.35      2.35      2.37      0.01         0.02
  WS02006249WS02006248        2.35      2.35      2.35      3.73         0.01
  WS02006251WS02006249        2.35      2.35      2.35      2.50         2.29
  WS02006252WS02006251        2.54      2.54      2.54      2.54         0.01
  WS02006256WS02006235        3.93      3.96      5.77      1.32         0.01
  YS02001580YS02001583        0.78      0.78      0.85      0.01         0.01
  YS02001583YS02001586        0.79      0.79      0.96      0.01         0.01
  YS02001586YS02001590        0.96      0.96      1.04      0.01         0.01
  YS02001590YS02001593        1.04      1.04      1.06      1.11         0.01
  YS02001593YS02001596        1.05      1.05      1.15      0.01         0.01
  YS02001596YS02001600        1.20      1.20      1.31      0.01         0.01
  YS02001600YS02001601        1.38      1.38      1.65      0.01         0.01
  YS02001601YS02001602        1.58      1.58      1.68      1.31         0.01
  YS02001602YS02001605        1.53      1.53      1.58      2.32         0.01
  YS02001605YS02001607        1.47      1.53      1.47      1.63         1.47
  YS02001607YS02001610        1.03      1.03      1.06      0.01         0.01
  YS02001610YS02001613        1.02      1.02      1.06      0.01         0.01
  YS02001613YS02001616        0.98      0.98      1.02      0.01         0.01
  YS02001616YS02001619        0.97      0.97      0.98      0.01         0.03
  YS02001619YS02001622        0.97      0.97      0.97      1.02         0.91
  YS02001622YS02001625        0.97      0.97      1.16      0.01         0.01
  YS02001625YS02001629        0.91      0.91      1.16      0.01         0.01
  YS02001629YS02163301        1.16      1.16      1.17      0.01         0.12
  YS02001633YS02163601        1.19      1.19      1.23      0.34         0.32
  YS02001641YS02001644        1.13      1.15      1.13      1.70         1.11
  YS02001644YS02001647        0.92      0.92      1.13      0.03         0.01
  YS02001647YS02001649        0.92      0.92      1.07      0.01         0.01
  YS02001649YS02001757        1.07      1.07      1.15      0.04         0.04
  YS02001652YS02001649        0.87      0.87      1.07      0.01         0.01
  YS02001655YS02001652        0.61      0.61      0.84      0.01         0.01
  YS02001658YS02001655        0.30      0.30      0.61      0.01         0.01
  YS02001661YS02001658        0.05      0.05      0.30      0.01         0.01
  YS02001664YS02001661        0.01      0.01      0.12      0.01         0.01
  YS02001745YS02001748        0.01      0.01      0.22      0.01         0.01
  YS02001748YS02001751        0.27      0.27      0.42      0.01         0.01
  YS02001751YS02001754        0.42      0.42      0.72      0.01         0.01
  YS02001754YS02001757        0.78      0.78      1.15      0.01         0.01
  YS02001757CaochengTiaoxuchi        1.05      1.15      2.27      0.45         0.33
  YS02001759YS02001757        1.04      1.04      1.15      0.08         0.06
  YS02001762YS02001759        1.01      1.01      1.04      0.01         0.02
  YS02001765YS02001762        0.95      0.95      1.01      0.01         0.01
  YS02001767YS02001765        0.91      0.91      0.95      0.01         0.02
  YS02001770YS02001767        0.90      0.90      0.91      0.66         0.61
  YS02001774YS02001770        0.87      0.87      0.98      0.01         0.01
  YS02001779YS02001774        0.70      0.70      0.98      0.01         0.01
  YS02001783YS02001784        0.65      0.67      0.65      0.81         0.65
  YS02001784YS02001785        0.54      0.65      0.54      1.09         0.54
  YS02001786YS02001788        0.01      0.54      0.01      0.93         0.01
  YS02001790YS02001791        0.01      0.01      0.01      0.63         0.01
  YS02001793JiankangQianchi        0.01      0.01      7.34      0.01         0.01
  YS02001882YS02001884        0.61      0.61      0.62      0.01         0.01
  YS02001884YS02001887        0.64      0.64      0.66      0.01         0.01
  YS02001887YS02001890        0.67      0.67      0.68      0.17         0.01
  YS02001890YS02001895        0.60      0.60      0.70      0.01         0.01
  YS02001895YS02001898        0.59      0.59      0.60      0.01         0.01
  YS02001898YS02001901        0.60      0.60      0.64      0.01         0.01
  YS02001901YS02001904        0.63      0.63      0.64      0.01         0.01
  YS02001904YS02001907        0.63      0.63      0.90      0.01         0.01
  YS02001907YS02006553        1.11      1.11      1.18      0.01         0.01
  YS02001910YS02001907        0.70      0.70      0.87      0.01         0.01
  YS02001915YS02001910        0.61      0.61      0.70      0.01         0.01
  YS02001918YS02001915        0.52      0.52      0.61      0.01         0.01
  YS02001920YS02001918        0.52      0.52      0.53      0.01         0.01
  YS02001923YS02001920        0.47      0.47      0.53      0.01         0.01
  YS02001926YS02001923        0.17      0.17      0.20      0.01         0.01
  YS02001929YS02001926        0.01      0.01      0.20      0.01         0.01
  YS02006553YS02006556        0.79      0.79      0.90      0.01         0.01
  YS02006556YS02006558        0.84      0.84      0.92      0.01         0.01
  YS02006558YS02006561        0.56      0.78      0.56      1.04         0.56
  YS02006561YS02001783        0.48      0.48      0.67      0.01         0.01
  YS02163301YS02001633        1.17      1.17      1.21      0.01         0.01
  YS02163601YS02164001        1.15      1.15      1.23      0.03         0.01
  YS02164001YS02001641        1.15      1.15      1.15      0.81         0.80
  
  
  ***************
  Pumping Summary
  ***************
  
  ---------------------------------------------------------------------------------------------------------
                                                  Min       Avg       Max     Total     Power    % Time Off
                        Percent   Number of      Flow      Flow      Flow    Volume     Usage    Pump Curve
  Pump                 Utilized   Start-Ups       LPS       LPS       LPS  10^6 ltr     Kw-hr    Low   High
  ---------------------------------------------------------------------------------------------------------
  CC-R1                   19.65           3      0.00    683.00    683.00     3.866     73.35    0.0    8.9
  CC-R2                   18.61           3      0.00    683.00    683.00     3.662     69.37    0.0   14.6
  CC-S1                   46.90           6      0.00    200.00    200.00     2.702     15.45    0.0    0.0
  CC-S2                   32.85           4      0.00    200.00    200.00     1.892     10.57    0.0    0.0
  JK-R1                    4.32          11      0.00   1000.00   1000.00     1.244     12.99    0.0    0.0
  JK-R2                    6.71          11      0.00   1000.00   1000.00     1.932     18.66    0.0    0.0
  JK-S                    16.40          14      0.00    300.00    300.00     1.417     23.10    0.0    0.0
  

  Analysis begun on:  Tue Apr 15 14:54:02 2025
  Analysis ended on:  Tue Apr 15 14:54:03 2025
  Total elapsed time: 00:00:01