
  EPA STORM WATER MANAGEMENT MODEL - VERSION 5.2 (Build 5.2.4)
  PYSWMM TOOLKIT API - VERSION v1.0 (2023-11-27)
  ------------------------------------------------------------

  WARNING 04: minimum elevation drop used for Conduit WS02004404WS02004405
  WARNING 03: negative offset ignored for Link YS02001904YS02001907
  
  ****************
  Analysis Options
  ****************
  Flow Units ............... LPS
  Process Models:
    Rainfall/Runoff ........ YES
    RDII ................... NO
    Snowmelt ............... NO
    Groundwater ............ NO
    Flow Routing ........... YES
    Ponding Allowed ........ NO
    Water Quality .......... NO
  Infiltration Method ...... HORTON
  Flow Routing Method ...... DYNWAVE
  Surcharge Method ......... EXTRAN
  Starting Date ............ 08/28/2015 08:00:00
  Ending Date .............. 08/28/2015 16:00:00
  Antecedent Dry Days ...... 8.0
  Report Time Step ......... 00:01:00
  Wet Time Step ............ 00:01:00
  Dry Time Step ............ 00:01:00
  Routing Time Step ........ 30.00 sec
  Variable Time Step ....... YES
  Maximum Trials ........... 8
  Number of Threads ........ 4
  Head Tolerance ........... 0.001500 m
  
  
  **************************        Volume         Depth
  Runoff Quantity Continuity     hectare-m            mm
  **************************     ---------       -------
  Total Precipitation ......         1.839        55.437
  Evaporation Loss .........         0.000         0.000
  Infiltration Loss ........         0.097         2.935
  Surface Runoff ...........         1.709        51.520
  Final Storage ............         0.033         0.994
  Continuity Error (%) .....        -0.020
  
  
  **************************        Volume        Volume
  Flow Routing Continuity        hectare-m      10^6 ltr
  **************************     ---------     ---------
  Dry Weather Inflow .......         0.025         0.251
  Wet Weather Inflow .......         1.709        17.093
  Groundwater Inflow .......         0.000         0.000
  RDII Inflow ..............         0.000         0.000
  External Inflow ..........         0.083         0.834
  External Outflow .........         1.384        13.844
  Flooding Loss ............         0.402         4.019
  Evaporation Loss .........         0.000         0.000
  Exfiltration Loss ........         0.000         0.000
  Initial Stored Volume ....         0.243         2.431
  Final Stored Volume ......         0.277         2.771
  Continuity Error (%) .....        -0.128
  
  
  *************************
  Highest Continuity Errors
  *************************
  Node YS02001583 (-9.30%)
  Node YS02001884 (4.90%)
  Node YS02001774 (1.15%)
  
  
  ***************************
  Time-Step Critical Elements
  ***************************
  Link WS02006252WS02006251 (49.77%)
  Link WS02004404WS02004405 (15.68%)
  Link WS02006238WS02006235 (11.34%)
  Link WS02006235WS02006234 (6.28%)
  Link YS02001791YS02001793 (4.54%)
  
  
  ********************************
  Highest Flow Instability Indexes
  ********************************
  Link WS02006113WS02006111 (44)
  Link WS02006111WS02006112 (27)
  Link WS02004404WS02004405 (19)
  Link WS02004403WS02004404 (17)
  Link WS02004405WS02004406 (16)
  
  
  *********************************
  Most Frequent Nonconverging Nodes
  *********************************
  Node CC-1 (10.47%)
  Node CC-2 (10.47%)
  Node JK-1 (10.47%)
  Node JK-2 (10.47%)
  Node WSC (10.47%)
  
  
  *************************
  Routing Time Step Summary
  *************************
  Minimum Time Step           :     0.01 sec
  Average Time Step           :     2.00 sec
  Maximum Time Step           :     8.35 sec
  % of Time in Steady State   :     0.00
  Average Iterations per Step :     2.95
  % of Steps Not Converging   :    10.47
  Time Step Frequencies       :
     30.000 - 13.228 sec      :     0.00 %
     13.228 -  5.833 sec      :     9.07 %
      5.833 -  2.572 sec      :    18.84 %
      2.572 -  1.134 sec      :    17.95 %
      1.134 -  0.500 sec      :    54.15 %
  
  
  ***************************
  Subcatchment Runoff Summary
  ***************************
  
  ------------------------------------------------------------------------------------------------------------------------------
                            Total      Total      Total      Total     Imperv       Perv      Total       Total     Peak  Runoff
                           Precip      Runon       Evap      Infil     Runoff     Runoff     Runoff      Runoff   Runoff   Coeff
  Subcatchment                 mm         mm         mm         mm         mm         mm         mm    10^6 ltr      LPS
  ------------------------------------------------------------------------------------------------------------------------------
  sub60                     55.44       0.00       0.00       1.79      47.58       4.87      52.45        0.69   422.04   0.946
  sub61                     55.44       0.00       0.00       2.59      44.88       6.84      51.72        0.95   582.42   0.933
  sub62                     55.44       0.00       0.00       1.19      49.71       3.24      52.96        1.45   822.79   0.955
  sub63                     55.44       0.00       0.00       4.74      38.39      11.34      49.72        1.13   640.64   0.897
  sub64                     55.44       0.00       0.00       2.40      45.91       5.92      51.83        1.24   660.02   0.935
  sub65                     55.44       0.00       0.00       2.08      46.98       5.13      52.11        1.43   737.82   0.940
  sub66                     55.44       0.00       0.00       5.81      38.28      10.27      48.55        2.26   940.88   0.876
  sub67                     55.44       0.00       0.00       1.15      49.75       3.28      53.04        0.99   643.60   0.957
  sub68                     55.44       0.00       0.00       2.14      46.49       5.62      52.11        1.43   841.05   0.940
  sub69                     55.44       0.00       0.00       1.89      47.01       6.43      53.44        1.98   987.98   0.964
  sub70                     55.44       0.00       0.00       6.21      36.43      12.64      49.07        1.42   532.25   0.885
  sub71                     55.44       0.00       0.00       1.22      49.67       3.22      52.89        1.38   718.58   0.954
  sub72                     55.44       0.00       0.00       1.08      50.15       2.80      52.95        0.73   344.39   0.955
  
  
  ******************
  Node Depth Summary
  ******************
  
  ---------------------------------------------------------------------------------
                                 Average  Maximum  Maximum  Time of Max    Reported
                                   Depth    Depth      HGL   Occurrence   Max Depth
  Node                 Type       Meters   Meters   Meters  days hr:min      Meters
  ---------------------------------------------------------------------------------
  WS02003060           JUNCTION     0.23     0.38     5.32     0  02:24        0.38
  WS02003066           JUNCTION     0.19     0.30     5.85     0  02:23        0.30
  WS02003067           JUNCTION     0.50     0.70     6.02     0  02:23        0.70
  WS02003069           JUNCTION     0.26     0.43     5.02     0  02:24        0.43
  WS02003072           JUNCTION     0.32     0.50     4.87     0  02:25        0.50
  WS02003073           JUNCTION     0.18     0.30     4.36     0  02:26        0.30
  WS02004401           JUNCTION     0.59     0.88     6.88     0  02:19        0.88
  WS02004402           JUNCTION     0.63     0.91     6.87     0  02:19        0.91
  WS02004403           JUNCTION     0.65     0.92     6.85     0  02:05        0.92
  WS02004404           JUNCTION     0.73     1.05     6.90     0  02:05        1.00
  WS02004405           JUNCTION     0.71     0.97     6.82     0  02:22        0.97
  WS02004406           JUNCTION     0.72     0.96     6.79     0  02:21        0.96
  WS02004407           JUNCTION     0.17     0.30     6.61     0  02:21        0.30
  WS02004409           JUNCTION     0.39     0.67     6.44     0  02:21        0.67
  WS02004410           JUNCTION     0.41     0.68     6.40     0  02:22        0.68
  WS02004411           JUNCTION     0.43     0.69     6.37     0  02:22        0.69
  WS02004412           JUNCTION     0.45     0.70     6.34     0  02:22        0.70
  WS02004413           JUNCTION     0.61     0.86     6.33     0  02:23        0.86
  WS02006109           JUNCTION     0.65     1.12     7.74     0  02:08        0.99
  WS02006110           JUNCTION     0.65     1.12     7.70     0  02:08        0.99
  WS02006111           JUNCTION     0.18     0.29     6.99     0  02:10        0.29
  WS02006112           JUNCTION     0.75     1.08     6.97     0  02:08        1.07
  WS02006113           JUNCTION     0.27     0.46     7.35     0  02:33        0.46
  WS02006115           JUNCTION     0.48     0.78     6.92     0  02:20        0.78
  WS02006116           JUNCTION     0.56     0.86     6.90     0  02:19        0.85
  WS02006228           JUNCTION     0.64     1.15     7.80     0  02:08        1.03
  WS02006229           JUNCTION     0.61     1.13     7.82     0  02:08        1.05
  WS02006230           JUNCTION     0.61     1.29     8.03     0  02:08        1.18
  WS02006231           JUNCTION     0.42     1.01     8.13     0  02:08        0.93
  WS02006232           JUNCTION     0.55     1.57     8.61     0  02:07        1.14
  WS02006234           JUNCTION     0.47     1.71     8.87     0  02:07        1.19
  WS02006235           JUNCTION     0.51     1.99     9.15     0  02:07        1.25
  WS02006238           JUNCTION     0.54     2.07     9.21     0  02:07        1.28
  WS02006239           JUNCTION     0.51     2.02     9.23     0  02:07        1.27
  WS02006240           JUNCTION     0.47     1.84     9.13     0  02:07        1.38
  WS02006242           JUNCTION     0.54     1.55     8.82     0  02:07        1.55
  WS02006243           JUNCTION     0.45     1.48     8.90     0  02:08        1.48
  WS02006245           JUNCTION     0.45     1.55     9.04     0  02:08        1.55
  WS02006247           JUNCTION     0.47     1.45     8.95     0  02:08        1.45
  WS02006248           JUNCTION     0.43     1.10     8.69     0  02:07        1.10
  WS02006249           JUNCTION     0.46     1.09     8.69     0  01:53        1.09
  WS02006251           JUNCTION     0.46     1.61     9.28     0  02:30        1.23
  WS02006252           JUNCTION     0.34     1.50     9.74     0  00:00        1.04
  WS02006256           JUNCTION     0.99     2.35     9.28     0  00:00        2.35
  WSF200               JUNCTION     0.17     0.29     5.53     0  02:23        0.29
  YS02001580           JUNCTION     0.09     1.05     9.59     0  01:46        0.77
  YS02001583           JUNCTION     0.13     1.14     9.64     0  01:46        0.82
  YS02001586           JUNCTION     0.20     1.13     9.30     0  01:45        1.13
  YS02001590           JUNCTION     0.29     1.40     9.26     0  01:44        1.37
  YS02001593           JUNCTION     0.23     1.46     9.32     0  01:44        1.29
  YS02001596           JUNCTION     0.31     1.68     9.10     0  01:46        1.65
  YS02001600           JUNCTION     0.37     1.87     9.00     0  01:44        1.86
  YS02001601           JUNCTION     0.56     2.06     8.90     0  01:44        2.06
  YS02001602           JUNCTION     0.47     1.87     8.77     0  01:45        1.87
  YS02001605           JUNCTION     0.44     1.78     8.68     0  01:46        1.77
  YS02001607           JUNCTION     0.43     1.68     8.53     0  01:46        1.64
  YS02001610           JUNCTION     0.48     1.68     8.48     0  01:46        1.68
  YS02001613           JUNCTION     0.43     1.69     8.54     0  01:46        1.65
  YS02001616           JUNCTION     0.36     1.61     8.52     0  01:46        1.59
  YS02001619           JUNCTION     0.34     1.61     8.54     0  01:46        1.58
  YS02001622           JUNCTION     0.33     1.62     8.52     0  01:46        1.56
  YS02001625           JUNCTION     0.60     1.78     8.38     0  01:46        1.78
  YS02001629           JUNCTION     0.45     1.85     8.40     0  01:46        1.85
  YS02001633           JUNCTION     0.53     2.08     8.53     0  01:47        2.00
  YS02001641           JUNCTION     0.51     1.99     8.42     0  01:49        1.98
  YS02001644           JUNCTION     0.51     1.92     8.35     0  01:47        1.92
  YS02001647           JUNCTION     0.29     1.84     8.45     0  01:47        1.69
  YS02001649           JUNCTION     0.33     2.05     8.44     0  01:50        1.87
  YS02001652           JUNCTION     0.22     2.16     8.76     0  01:49        1.71
  YS02001655           JUNCTION     0.17     2.20     9.05     0  01:49        1.50
  YS02001658           JUNCTION     0.12     1.95     9.09     0  01:49        1.25
  YS02001661           JUNCTION     0.15     1.97     9.37     0  01:50        1.03
  YS02001664           JUNCTION     0.05     0.62     8.54     0  01:50        0.50
  YS02001745           JUNCTION     0.06     0.88     8.40     0  01:50        0.84
  YS02001748           JUNCTION     0.11     1.84     8.91     0  01:50        1.08
  YS02001751           JUNCTION     0.14     2.20     9.08     0  01:49        1.26
  YS02001754           JUNCTION     0.19     2.20     8.81     0  01:48        1.51
  YS02001757           JUNCTION     0.35     2.21     8.47     0  01:50        1.86
  YS02001759           JUNCTION     0.28     2.19     8.55     0  01:50        1.85
  YS02001762           JUNCTION     0.27     2.15     8.55     0  01:50        1.84
  YS02001765           JUNCTION     0.25     2.10     8.55     0  01:48        1.82
  YS02001767           JUNCTION     0.25     2.03     8.52     0  01:48        1.82
  YS02001770           JUNCTION     0.27     1.95     8.44     0  01:48        1.87
  YS02001774           JUNCTION     0.33     2.05     8.47     0  01:48        1.95
  YS02001779           JUNCTION     0.17     1.68     8.37     0  01:48        1.68
  YS02001783           JUNCTION     0.24     1.68     7.82     0  01:48        1.22
  YS02001784           JUNCTION     0.25     1.37     7.44     0  01:48        1.12
  YS02001786           JUNCTION     0.21     1.03     7.06     0  01:48        0.91
  YS02001788           JUNCTION     0.15     0.62     6.60     0  01:54        0.62
  YS02001790           JUNCTION     0.18     0.72     6.37     0  01:55        0.72
  YS02001791           JUNCTION     0.11     0.44     5.91     0  01:53        0.43
  YS02001793           JUNCTION     0.06     0.29     5.13     0  01:50        0.27
  YS02001882           JUNCTION     0.31     1.83     8.55     0  01:47        1.67
  YS02001884           JUNCTION     0.40     1.91     8.53     0  01:47        1.76
  YS02001887           JUNCTION     0.48     1.93     8.47     0  01:47        1.83
  YS02001890           JUNCTION     0.51     1.81     8.32     0  01:47        1.81
  YS02001895           JUNCTION     0.28     1.75     8.50     0  01:47        1.56
  YS02001898           JUNCTION     0.29     1.77     8.51     0  01:47        1.56
  YS02001901           JUNCTION     0.40     1.87     8.48     0  01:47        1.67
  YS02001904           JUNCTION     0.38     1.85     8.48     0  01:47        1.63
  YS02001907           JUNCTION     0.70     1.96     8.25     0  01:47        1.96
  YS02001910           JUNCTION     0.50     2.03     8.54     0  01:47        1.96
  YS02001915           JUNCTION     0.31     2.00     8.72     0  01:47        1.90
  YS02001918           JUNCTION     0.17     1.81     8.88     0  01:47        1.81
  YS02001920           JUNCTION     0.24     2.12     9.13     0  01:48        1.82
  YS02001923           JUNCTION     0.12     2.03     9.29     0  01:48        1.54
  YS02001926           JUNCTION     0.16     1.90     9.35     0  01:48        1.37
  YS02001929           JUNCTION     0.09     1.78     9.47     0  01:48        1.15
  YS02006553           JUNCTION     0.71     2.10     8.38     0  01:48        1.97
  YS02006556           JUNCTION     0.68     2.22     8.53     0  01:48        1.94
  YS02006558           JUNCTION     0.72     2.30     8.56     0  01:48        1.98
  YS02006561           JUNCTION     0.15     1.54     8.20     0  01:48        0.89
  YS02163301           JUNCTION     0.47     1.97     8.49     0  01:47        1.93
  YS02163601           JUNCTION     0.57     2.08     8.48     0  01:47        2.06
  YS02164001           JUNCTION     0.50     2.02     8.48     0  01:47        1.99
  CC-1                 OUTFALL      0.00     0.00     0.00     0  00:00        0.00
  CC-2                 OUTFALL      0.00     0.00     0.00     0  00:00        0.00
  JK-1                 OUTFALL      0.00     0.00     0.00     0  00:00        0.00
  JK-2                 OUTFALL      0.00     0.00     0.00     0  00:00        0.00
  WSC                  OUTFALL      0.18     0.30     0.97     0  02:26        0.30
  CC-storage           STORAGE      0.92     1.55     7.05     0  02:20        1.55
  JK-storage           STORAGE      2.84     4.22     5.02     0  01:50        4.22
  
  
  *******************
  Node Inflow Summary
  *******************
  
  -------------------------------------------------------------------------------------------------
                                  Maximum  Maximum                  Lateral       Total        Flow
                                  Lateral    Total  Time of Max      Inflow      Inflow     Balance
                                   Inflow   Inflow   Occurrence      Volume      Volume       Error
  Node                 Type           LPS      LPS  days hr:min    10^6 ltr    10^6 ltr     Percent
  -------------------------------------------------------------------------------------------------
  WS02003060           JUNCTION     16.53   557.26     0  02:23       0.476        5.32       0.050
  WS02003066           JUNCTION      0.00   540.09     0  02:23           0        4.85       0.032
  WS02003067           JUNCTION      0.00   539.95     0  02:23           0        4.85       0.091
  WS02003069           JUNCTION      0.32   557.02     0  02:24     0.00922        5.33       0.087
  WS02003072           JUNCTION      0.00   556.38     0  02:24           0        5.32       0.147
  WS02003073           JUNCTION      1.82   557.94     0  02:25      0.0524        5.37       0.118
  WS02004401           JUNCTION      0.00   540.72     0  02:24           0        4.95       0.217
  WS02004402           JUNCTION      0.00   542.78     0  02:20           0        4.94       0.219
  WS02004403           JUNCTION      0.00   542.88     0  02:19           0        4.93       0.210
  WS02004404           JUNCTION      0.16   562.75     0  02:05     0.00467        4.93       0.156
  WS02004405           JUNCTION      0.04   605.24     0  02:03      0.0011        4.92       0.195
  WS02004406           JUNCTION      0.00   545.97     0  02:18           0        4.91       0.436
  WS02004407           JUNCTION      0.00   541.71     0  02:21           0        4.89       0.030
  WS02004409           JUNCTION      0.00   541.41     0  02:21           0        4.89       0.068
  WS02004410           JUNCTION      0.00   541.01     0  02:21           0        4.88       0.103
  WS02004411           JUNCTION      0.00   540.82     0  02:22           0        4.88       0.128
  WS02004412           JUNCTION      0.00   540.40     0  02:22           0        4.87       0.167
  WS02004413           JUNCTION      0.00   540.58     0  02:22           0        4.87       0.291
  WS02006109           JUNCTION      1.23   551.27     0  02:08      0.0354           5       0.184
  WS02006110           JUNCTION      0.00   552.23     0  02:08           0        4.99       0.140
  WS02006111           JUNCTION      0.00   560.88     0  02:34           0        4.98       0.017
  WS02006112           JUNCTION      0.00   543.10     0  02:34           0        4.98       0.369
  WS02006113           JUNCTION      0.00   568.99     0  02:08           0        4.99       0.041
  WS02006115           JUNCTION      0.00   549.64     0  03:16           0        4.97       0.144
  WS02006116           JUNCTION      0.00   542.25     0  02:20           0        4.96       0.082
  WS02006228           JUNCTION      0.00   550.25     0  02:08           0        4.97       0.086
  WS02006229           JUNCTION      0.00   550.62     0  02:08           0        4.98       0.118
  WS02006230           JUNCTION     10.28   585.68     0  03:15       0.296        4.98       0.118
  WS02006231           JUNCTION      0.00   577.39     0  02:30           0        4.68      -0.064
  WS02006232           JUNCTION      0.00   576.54     0  02:30           0         4.7       0.240
  WS02006234           JUNCTION      0.00   571.04     0  02:30           0        4.69      -0.190
  WS02006235           JUNCTION      0.00   572.24     0  01:40           0        4.73       0.230
  WS02006238           JUNCTION      0.00   424.20     0  02:25           0        3.75      -0.240
  WS02006239           JUNCTION      0.00   423.29     0  03:17           0        3.73      -0.118
  WS02006240           JUNCTION      0.00   421.16     0  03:17           0        3.71      -0.054
  WS02006242           JUNCTION      0.00   421.57     0  03:17           0         3.7       0.009
  WS02006243           JUNCTION      0.00   421.01     0  03:17           0        3.69       0.147
  WS02006245           JUNCTION      0.00   420.08     0  03:17           0        3.71       0.412
  WS02006247           JUNCTION      0.00   419.80     0  03:17           0         3.7       0.031
  WS02006248           JUNCTION      0.00   419.84     0  02:25           0        3.71       0.084
  WS02006249           JUNCTION      0.00   464.41     0  01:35           0        3.96       0.409
  WS02006251           JUNCTION      0.08   412.63     0  02:30     0.00222        3.96      -0.023
  WS02006252           JUNCTION      0.00   400.00     0  00:00           0        3.95      -0.081
  WS02006256           JUNCTION      0.00   300.00     0  00:00           0        1.44      -0.441
  WSF200               JUNCTION      0.00   540.20     0  02:23           0        4.85       0.013
  YS02001580           JUNCTION      0.00   141.14     0  01:46           0     0.00449       2.422
  YS02001583           JUNCTION      0.00   235.30     0  01:46           0       0.015      -8.508
  YS02001586           JUNCTION    532.25   532.37     0  01:54        1.42        1.43       0.101
  YS02001590           JUNCTION      0.00   318.17     0  02:08           0        1.24      -0.040
  YS02001593           JUNCTION      0.00   318.02     0  01:58           0        1.24      -0.002
  YS02001596           JUNCTION      0.00   318.01     0  01:53           0        1.24      -0.004
  YS02001600           JUNCTION      0.00   318.07     0  01:58           0        1.24      -0.004
  YS02001601           JUNCTION    987.98  1305.48     0  01:52        1.98        3.22       0.007
  YS02001602           JUNCTION      0.00   557.58     0  01:45           0        2.17       0.014
  YS02001605           JUNCTION      0.00   557.49     0  01:45           0        2.07       0.022
  YS02001607           JUNCTION      0.00   557.47     0  01:45           0        2.07       0.090
  YS02001610           JUNCTION      0.00   550.66     0  01:45           0        2.11       0.094
  YS02001613           JUNCTION      0.00   557.91     0  01:45           0        1.75       0.085
  YS02001616           JUNCTION      0.00   577.33     0  01:45           0        1.75       0.020
  YS02001619           JUNCTION    940.88   977.61     0  01:46        2.26        3.97      -0.002
  YS02001622           JUNCTION      0.00   977.69     0  01:46           0        3.93      -0.007
  YS02001625           JUNCTION      0.00  1065.17     0  01:54           0        3.99       0.208
  YS02001629           JUNCTION      0.00   952.90     0  01:46           0        3.32       0.011
  YS02001633           JUNCTION    738.02  1446.32     0  01:47        1.44        4.68       0.069
  YS02001641           JUNCTION      0.00  1445.53     0  01:47           0        4.62       0.058
  YS02001644           JUNCTION    660.06  1931.02     0  01:47        1.25        5.86       0.054
  YS02001647           JUNCTION      0.00  1930.95     0  01:47           0        5.79       0.008
  YS02001649           JUNCTION      0.00  2201.65     0  01:48           0        6.93       0.001
  YS02001652           JUNCTION      0.00   804.94     0  01:51           0        1.13      -0.097
  YS02001655           JUNCTION      0.15   804.97     0  01:51     0.00443        1.13      -0.038
  YS02001658           JUNCTION      0.00   803.49     0  01:51           0        1.13      -0.048
  YS02001661           JUNCTION      0.00   817.70     0  01:50           0        1.13       0.039
  YS02001664           JUNCTION    640.64   640.64     0  01:51        1.13        1.13      -0.010
  YS02001745           JUNCTION    422.04   569.58     0  01:49       0.689        0.69       0.262
  YS02001748           JUNCTION      0.04   642.15     0  01:50      0.0013       0.692      -0.393
  YS02001751           JUNCTION      0.01   567.91     0  01:50    0.000317       0.701       0.067
  YS02001754           JUNCTION      0.26   568.36     0  01:50     0.00749       0.715      -0.197
  YS02001757           JUNCTION      0.00  3483.18     0  01:50           0          10       0.057
  YS02001759           JUNCTION    582.46  1379.16     0  01:49        0.95        2.41      -0.008
  YS02001762           JUNCTION      0.00   810.72     0  01:52           0        1.46      -0.001
  YS02001765           JUNCTION      0.00   810.13     0  01:52           0        1.46       0.001
  YS02001767           JUNCTION      0.54   809.76     0  01:52      0.0154        1.46      -0.008
  YS02001770           JUNCTION    822.94   822.94     0  01:51        1.46         1.5      -0.014
  YS02001774           JUNCTION      0.00   511.10     0  01:48           0      0.0752       1.159
  YS02001779           JUNCTION      0.01   517.49     0  01:48    0.000144      0.0312      -1.682
  YS02001783           JUNCTION      0.00  1158.55     0  01:49           0         3.8       0.006
  YS02001784           JUNCTION      1.06  1159.86     0  01:49      0.0305        3.83       0.013
  YS02001786           JUNCTION      0.06  1159.70     0  01:49     0.00162        3.83       0.018
  YS02001788           JUNCTION      0.07  1160.86     0  01:48     0.00204        3.83       0.008
  YS02001790           JUNCTION      0.15  1169.82     0  01:50     0.00446        3.83       0.020
  YS02001791           JUNCTION      0.00  1282.50     0  01:55           0        3.83      -0.022
  YS02001793           JUNCTION      0.00  1237.35     0  01:58           0        3.83       0.005
  YS02001882           JUNCTION      0.00   115.88     0  01:47           0      0.0129       4.645
  YS02001884           JUNCTION      0.00   127.49     0  01:46           0      0.0487       5.156
  YS02001887           JUNCTION    644.05   644.05     0  01:50           1        1.03       0.435
  YS02001890           JUNCTION      0.00   644.80     0  01:50           0       0.992       0.509
  YS02001895           JUNCTION      0.00   541.22     0  01:48           0        0.96       0.172
  YS02001898           JUNCTION      0.00   541.25     0  01:47           0       0.958       0.005
  YS02001901           JUNCTION      0.00   541.09     0  01:47           0       0.961       0.333
  YS02001904           JUNCTION      0.00   541.13     0  01:47           0       0.965       0.284
  YS02001907           JUNCTION      0.00  1631.96     0  01:49           0        3.15       0.541
  YS02001910           JUNCTION      0.00  1109.58     0  01:49           0        2.19       0.323
  YS02001915           JUNCTION    718.60  1109.13     0  01:49        1.38        2.24       0.068
  YS02001918           JUNCTION      0.00   582.83     0  01:47           0       0.893       0.014
  YS02001920           JUNCTION      2.87   617.14     0  01:47      0.0827       0.871       0.113
  YS02001923           JUNCTION      0.04   657.09     0  01:47     0.00109       0.771      -0.043
  YS02001926           JUNCTION      0.05   998.74     0  01:48      0.0015       0.751      -0.073
  YS02001929           JUNCTION    344.39   824.49     0  01:48       0.728       0.734      -0.093
  YS02006553           JUNCTION      0.00   801.55     0  02:08           0        2.39       0.489
  YS02006556           JUNCTION      0.00   801.06     0  02:08           0         2.4       0.327
  YS02006558           JUNCTION    841.93  1176.97     0  01:48        1.46        3.83       0.090
  YS02006561           JUNCTION      0.00  1176.09     0  01:48           0         3.8      -0.002
  YS02163301           JUNCTION      0.00   925.59     0  01:47           0        3.31       0.037
  YS02163601           JUNCTION      0.11  1446.02     0  01:47     0.00317        4.62       0.104
  YS02164001           JUNCTION      0.00  1445.82     0  01:47           0        4.62       0.043
  CC-1                 OUTFALL       0.00   683.00     0  00:00           0        3.25       0.000
  CC-2                 OUTFALL       0.00   683.00     0  00:00           0        2.87       0.000
  JK-1                 OUTFALL       0.00  1000.00     0  00:00           0        1.41       0.000
  JK-2                 OUTFALL       0.00  1000.00     0  00:00           0       0.956       0.000
  WSC                  OUTFALL       0.00   557.76     0  02:26           0        5.36       0.000
  CC-storage           STORAGE       0.00  3484.96     0  01:50           0        12.3      -0.100
  JK-storage           STORAGE       0.00  1238.42     0  01:54           0        3.98       0.093
  
  
  **********************
  Node Surcharge Summary
  **********************
  
  Surcharging occurs when water rises above the top of the highest conduit.
  ---------------------------------------------------------------------
                                               Max. Height   Min. Depth
                                   Hours       Above Crown    Below Rim
  Node                 Type      Surcharged         Meters       Meters
  ---------------------------------------------------------------------
  WS02004404           JUNCTION        0.06          0.046        2.734
  WS02006109           JUNCTION        2.05          0.300        1.520
  WS02006110           JUNCTION        0.85          0.206        1.644
  WS02006112           JUNCTION        0.98          0.084        1.596
  WS02006228           JUNCTION        2.04          0.323        1.877
  WS02006229           JUNCTION        2.05          0.331        2.119
  WS02006230           JUNCTION        0.86          0.208        1.362
  WS02006231           JUNCTION        0.92          0.299        1.231
  WS02006232           JUNCTION        2.10          0.875        0.605
  WS02006234           JUNCTION        1.27          0.988        0.252
  WS02006235           JUNCTION        2.06          1.277        0.013
  WS02006238           JUNCTION        2.08          1.350        0.080
  WS02006239           JUNCTION        2.01          1.278        0.012
  WS02006240           JUNCTION        1.92          1.130        0.260
  WS02006242           JUNCTION        1.98          0.820        0.000
  WS02006243           JUNCTION        1.87          0.770        0.000
  WS02006245           JUNCTION        1.87          0.842        0.008
  WS02006247           JUNCTION        1.87          0.744        0.016
  WS02006248           JUNCTION        1.87          0.380        0.000
  WS02006249           JUNCTION        1.86          0.390        0.000
  WS02006251           JUNCTION        0.96          0.581        0.599
  WS02006252           JUNCTION        2.07          1.100        0.000
  WS02006256           JUNCTION        5.55          2.050        0.000
  YS02001580           JUNCTION        0.53          0.450        0.000
  YS02001583           JUNCTION        0.54          0.500        0.000
  YS02001586           JUNCTION        0.68          0.510        0.000
  YS02001590           JUNCTION        0.75          0.750        0.000
  YS02001593           JUNCTION        0.76          0.840        0.000
  YS02001596           JUNCTION        0.86          0.954        0.116
  YS02001600           JUNCTION        1.01          1.190        0.000
  YS02001601           JUNCTION        1.43          1.440        0.000
  YS02001602           JUNCTION        1.29          1.270        0.000
  YS02001605           JUNCTION        1.22          1.180        0.000
  YS02001607           JUNCTION        0.73          0.680        0.000
  YS02001610           JUNCTION        0.75          0.680        0.000
  YS02001613           JUNCTION        0.72          0.694        0.006
  YS02001616           JUNCTION        0.68          0.610        0.000
  YS02001619           JUNCTION        0.66          0.610        0.000
  YS02001622           JUNCTION        0.66          0.620        0.000
  YS02001625           JUNCTION        0.84          0.780        0.000
  YS02001629           JUNCTION        0.61          0.470        0.000
  YS02001633           JUNCTION        0.86          1.060        0.000
  YS02001641           JUNCTION        0.80          0.988        0.112
  YS02001644           JUNCTION        0.77          0.920        0.000
  YS02001647           JUNCTION        0.57          0.843        0.057
  YS02001649           JUNCTION        0.68          1.050        0.000
  YS02001652           JUNCTION        0.48          1.130        0.000
  YS02001655           JUNCTION        0.31          1.200        0.000
  YS02001658           JUNCTION        0.12          0.953        0.347
  YS02001661           JUNCTION        0.01          0.896        0.494
  YS02001748           JUNCTION        0.02          0.756        0.434
  YS02001751           JUNCTION        0.19          1.200        0.000
  YS02001754           JUNCTION        0.36          1.150        0.000
  YS02001757           JUNCTION        0.75          1.210        0.000
  YS02001759           JUNCTION        0.64          1.191        0.019
  YS02001762           JUNCTION        0.61          1.150        0.000
  YS02001765           JUNCTION        0.56          1.100        0.000
  YS02001767           JUNCTION        0.52          1.030        0.000
  YS02001770           JUNCTION        0.49          0.920        0.000
  YS02001774           JUNCTION        0.60          1.050        0.000
  YS02001779           JUNCTION        0.36          0.680        0.000
  YS02001783           JUNCTION        0.49          0.877        0.723
  YS02001784           JUNCTION        0.47          0.569        0.921
  YS02001786           JUNCTION        0.37          0.230        1.200
  YS02001882           JUNCTION        0.44          0.830        0.000
  YS02001884           JUNCTION        0.45          0.849        0.021
  YS02001887           JUNCTION        0.48          0.877        0.073
  YS02001890           JUNCTION        0.50          0.760        0.000
  YS02001895           JUNCTION        0.43          0.750        0.000
  YS02001898           JUNCTION        0.42          0.740        0.000
  YS02001901           JUNCTION        0.47          0.870        0.000
  YS02001904           JUNCTION        0.46          0.850        0.000
  YS02001907           JUNCTION        0.69          0.950        0.000
  YS02001910           JUNCTION        0.52          1.029        0.071
  YS02001915           JUNCTION        0.44          1.000        0.000
  YS02001918           JUNCTION        0.35          0.810        0.000
  YS02001920           JUNCTION        0.37          1.120        0.020
  YS02001923           JUNCTION        0.01          0.820        0.000
  YS02001926           JUNCTION        0.02          0.900        0.000
  YS02001929           JUNCTION        0.01          0.780        0.000
  YS02006553           JUNCTION        0.70          1.096        0.094
  YS02006556           JUNCTION        0.61          1.177        0.173
  YS02006558           JUNCTION        0.60          1.195        0.205
  YS02006561           JUNCTION        0.32          0.735        0.415
  YS02163301           JUNCTION        0.84          0.973        0.057
  YS02163601           JUNCTION        0.89          1.080        0.000
  YS02164001           JUNCTION        0.81          1.022        0.078
  
  
  *********************
  Node Flooding Summary
  *********************
  
  Flooding refers to all water that overflows a node, whether it ponds or not.
  --------------------------------------------------------------------------
                                                             Total   Maximum
                                 Maximum   Time of Max       Flood    Ponded
                        Hours       Rate    Occurrence      Volume     Depth
  Node                 Flooded       LPS   days hr:min    10^6 ltr    Meters
  --------------------------------------------------------------------------
  WS02006242              0.01     18.91      0  02:07       0.000     0.000
  WS02006243              0.01      1.33      0  02:08       0.000     0.000
  WS02006248              0.01     13.81      0  02:07       0.000     0.000
  WS02006249              0.94    116.70      0  01:53       0.235     0.000
  WS02006252              0.01    245.63      0  00:00       0.000     0.000
  WS02006256              1.34    293.19      0  00:00       0.448     0.000
  YS02001580              0.01     95.07      0  01:46       0.000     0.000
  YS02001583              0.01    203.77      0  01:46       0.000     0.000
  YS02001586              0.41    214.96      0  01:54       0.180     0.000
  YS02001590              0.01     75.79      0  01:44       0.000     0.000
  YS02001593              0.01     18.12      0  01:44       0.000     0.000
  YS02001600              0.01      3.40      0  01:45       0.000     0.000
  YS02001601              0.61    907.64      0  01:52       1.044     0.000
  YS02001602              0.50     62.00      0  01:53       0.101     0.000
  YS02001605              0.01      1.75      0  01:46       0.000     0.000
  YS02001607              0.01     11.17      0  01:46       0.000     0.000
  YS02001610              0.43    437.47      0  01:54       0.395     0.000
  YS02001616              0.01     28.20      0  01:46       0.000     0.000
  YS02001619              0.01      8.82      0  01:46       0.000     0.000
  YS02001622              0.01    291.36      0  01:46       0.001     0.000
  YS02001625              0.39   1065.06      0  01:54       0.727     0.000
  YS02001629              0.07    306.46      0  01:46       0.019     0.000
  YS02001633              0.01      5.11      0  01:47       0.000     0.000
  YS02001644              0.09    423.56      0  01:50       0.060     0.000
  YS02001649              0.01     14.98      0  01:50       0.000     0.000
  YS02001652              0.01     68.24      0  01:49       0.000     0.000
  YS02001655              0.01    284.38      0  01:49       0.000     0.000
  YS02001751              0.01    263.90      0  01:49       0.000     0.000
  YS02001754              0.01    264.19      0  01:48       0.000     0.000
  YS02001757              0.01     44.43      0  01:50       0.000     0.000
  YS02001762              0.01      7.71      0  01:50       0.000     0.000
  YS02001765              0.01    127.26      0  01:48       0.000     0.000
  YS02001767              0.01    121.28      0  01:48       0.000     0.000
  YS02001770              0.01    266.98      0  01:48       0.000     0.000
  YS02001774              0.01     51.00      0  01:48       0.000     0.000
  YS02001779              0.05    484.74      0  01:48       0.013     0.000
  YS02001882              0.01    110.92      0  01:47       0.000     0.000
  YS02001890              0.10    123.40      0  01:50       0.027     0.000
  YS02001895              0.01     60.74      0  01:47       0.000     0.000
  YS02001898              0.01    175.06      0  01:47       0.000     0.000
  YS02001901              0.01     10.46      0  01:47       0.000     0.000
  YS02001904              0.01     79.76      0  01:47       0.000     0.000
  YS02001907              0.30   1290.89      0  01:49       0.756     0.000
  YS02001915              0.01    230.16      0  01:47       0.000     0.000
  YS02001918              0.01    137.29      0  01:48       0.002     0.000
  YS02001923              0.01    102.72      0  01:48       0.000     0.000
  YS02001926              0.01    715.77      0  01:48       0.005     0.000
  YS02001929              0.01    670.65      0  01:48       0.002     0.000
  YS02163601              0.01      8.33      0  01:47       0.000     0.000
  
  
  **********************
  Storage Volume Summary
  **********************
  
  ------------------------------------------------------------------------------------------------
                         Average    Avg   Evap  Exfil     Maximum    Max    Time of Max    Maximum
                          Volume   Pcnt   Pcnt   Pcnt      Volume   Pcnt     Occurrence    Outflow
  Storage Unit           1000 m³   Full   Loss   Loss     1000 m³   Full    days hr:min        LPS
  ------------------------------------------------------------------------------------------------
  CC-storage               2.560   39.9    0.0    0.0       4.309   67.2       0  02:20    1783.53
  JK-storage               0.143   48.9    0.0    0.0       0.212   72.7       0  01:50    2300.00
  
  
  ***********************
  Outfall Loading Summary
  ***********************
  
  -----------------------------------------------------------
                         Flow       Avg       Max       Total
                         Freq      Flow      Flow      Volume
  Outfall Node           Pcnt       LPS       LPS    10^6 ltr
  -----------------------------------------------------------
  CC-1                  17.76    683.00    683.00       3.251
  CC-2                  17.88    683.00    683.00       2.868
  JK-1                   6.30   1000.00   1000.00       1.408
  JK-2                   4.64   1000.00   1000.00       0.956
  WSC                   99.96    248.72    557.76       5.361
  -----------------------------------------------------------
  System                29.31   3614.72   3886.02      13.844
  
  
  ********************
  Link Flow Summary
  ********************
  
  -----------------------------------------------------------------------------
                                 Maximum  Time of Max   Maximum    Max/    Max/
                                  |Flow|   Occurrence   |Veloc|    Full    Full
  Link                 Type          LPS  days hr:min     m/sec    Flow   Depth
  -----------------------------------------------------------------------------
  1                    CONDUIT    557.76     0  02:26      2.83    0.19    0.30
  WS02003060WS02003069 CONDUIT    556.70     0  02:24      1.64    0.22    0.34
  WS02003066WSF200     CONDUIT    540.20     0  02:23      2.86    0.09    0.22
  WS02003067WS02003066 CONDUIT    540.09     0  02:23      1.21    0.17    0.42
  WS02003069WS02003072 CONDUIT    556.38     0  02:24      1.37    0.27    0.39
  WS02003072WS02003073 CONDUIT    556.12     0  02:25      1.44    1.20    0.37
  WS02004401WS02004402 CONDUIT    542.78     0  02:20      0.98    0.65    0.89
  WS02004402WS02004403 CONDUIT    542.88     0  02:19      0.97    0.78    0.91
  WS02004403WS02004404 CONDUIT    562.58     0  02:05      0.92    0.41    0.96
  WS02004404WS02004405 CONDUIT    605.20     0  02:03      1.08    5.93    0.98
  WS02004405WS02004406 CONDUIT    545.97     0  02:18      0.99    1.08    0.96
  WS02004406WS02004407 CONDUIT    541.71     0  02:21      1.04    0.24    0.63
  WS02004407WS02004409 CONDUIT    541.41     0  02:21      1.50    0.19    0.48
  WS02004409WS02004410 CONDUIT    541.01     0  02:21      0.96    0.70    0.68
  WS02004410WS02004411 CONDUIT    540.82     0  02:22      0.94    0.74    0.69
  WS02004411WS02004412 CONDUIT    540.40     0  02:22      0.93    0.77    0.70
  WS02004412WS02004413 CONDUIT    540.58     0  02:22      0.82    0.36    0.78
  WS02004413WS02003067 CONDUIT    539.95     0  02:23      1.11    0.23    0.59
  WS02006109WS02006110 CONDUIT    552.23     0  02:08      1.10    1.06    1.00
  WS02006110WS02006113 CONDUIT    568.99     0  02:08      1.37    0.52    0.79
  WS02006111WS02006112 CONDUIT    543.10     0  02:34      1.81    0.26    0.67
  WS02006112WS02006115 CONDUIT    549.64     0  03:16      0.78    0.32    0.88
  WS02006113WS02006111 CONDUIT    560.88     0  02:34      2.47    0.67    0.46
  WS02006115WS02006116 CONDUIT    542.25     0  02:20      1.02    0.70    0.79
  WS02006116WS02004401 CONDUIT    540.72     0  02:24      0.98    0.75    0.87
  WS02006228WS02006109 CONDUIT    550.04     0  02:08      1.09    2.40    1.00
  WS02006229WS02006228 CONDUIT    550.25     0  02:08      1.14    1.82    1.00
  WS02006230WS02006229 CONDUIT    550.62     0  02:08      1.43   12.25    1.00
  WS02006231WS02006230 CONDUIT    575.40     0  03:15      1.57    8.73    1.00
  WS02006232WS02006231 CONDUIT    577.39     0  02:30      1.51    1.21    1.00
  WS02006234WS02006232 CONDUIT    576.54     0  02:30      1.50    1.17    1.00
  WS02006235WS02006234 CONDUIT    571.04     0  02:30      1.48    6.02    1.00
  WS02006238WS02006235 CONDUIT    426.16     0  03:07      1.45    0.95    1.00
  WS02006239WS02006238 CONDUIT    424.20     0  02:25      1.10    1.36    1.00
  WS02006240WS02006239 CONDUIT    423.29     0  03:17      1.26    1.33    1.00
  WS02006242WS02006240 CONDUIT    421.16     0  03:17      1.15    1.67    1.00
  WS02006243WS02006242 CONDUIT    421.57     0  03:17      1.40    0.90    1.00
  WS02006245WS02006243 CONDUIT    421.01     0  03:17      1.45    1.25    1.00
  WS02006247WS02006245 CONDUIT    420.08     0  03:17      1.43    3.33    1.00
  WS02006248WS02006247 CONDUIT    419.80     0  03:17      1.44    0.91    1.00
  WS02006249WS02006248 CONDUIT    419.84     0  02:25      1.40    2.30    1.00
  WS02006251WS02006249 CONDUIT    464.41     0  01:35      1.99    1.34    1.00
  WS02006252WS02006251 CONDUIT    412.55     0  02:30     24.61    1.51    1.00
  WS02006256WS02006235 CONDUIT    288.91     0  00:00      4.23    3.06    1.00
  WSF200WS02003060     CONDUIT    540.73     0  02:23      2.07    0.12    0.28
  YS02001580YS02001583 CONDUIT    141.14     0  01:46      0.82    0.55    1.00
  YS02001583YS02001586 CONDUIT    186.25     0  01:46      0.83    0.28    1.00
  YS02001586YS02001590 CONDUIT    318.17     0  02:08      1.26    0.56    1.00
  YS02001590YS02001593 CONDUIT    318.02     0  01:58      1.12    2.00    1.00
  YS02001593YS02001596 CONDUIT    318.01     0  01:53      1.74    0.50    1.00
  YS02001596YS02001600 CONDUIT    318.07     0  01:58      1.21    0.62    1.00
  YS02001600YS02001601 CONDUIT    317.93     0  01:53      1.12    0.55    1.00
  YS02001601YS02001602 CONDUIT    557.58     0  01:45      1.97    2.01    1.00
  YS02001602YS02001605 CONDUIT    557.49     0  01:45      1.97   11.80    1.00
  YS02001605YS02001607 CONDUIT    557.47     0  01:45      1.97    3.06    1.00
  YS02001607YS02001610 CONDUIT    550.66     0  01:45      0.70    0.52    1.00
  YS02001610YS02001613 CONDUIT    557.91     0  01:45      0.71    0.64    1.00
  YS02001613YS02001616 CONDUIT    577.33     0  01:45      0.74    0.49    1.00
  YS02001616YS02001619 CONDUIT    532.12     0  01:46      0.68    0.92    1.00
  YS02001619YS02001622 CONDUIT    977.69     0  01:46      1.25    1.44    1.00
  YS02001622YS02001625 CONDUIT    952.85     0  01:46      1.21    0.51    1.00
  YS02001625YS02001629 CONDUIT    952.90     0  01:46      1.22    0.45    1.00
  YS02001629YS02163301 CONDUIT    925.59     0  01:47      1.18    1.14    1.00
  YS02001633YS02163601 CONDUIT   1445.91     0  01:47      1.84    1.52    1.00
  YS02001641YS02001644 CONDUIT   1445.78     0  01:47      1.84    4.67    1.00
  YS02001644YS02001647 CONDUIT   1930.95     0  01:47      2.47    1.13    1.00
  YS02001647YS02001649 CONDUIT   1908.49     0  01:47      2.44    1.01    1.00
  YS02001649YS02001757 CONDUIT   2197.94     0  01:48      2.80    1.33    1.00
  YS02001652YS02001649 CONDUIT    805.13     0  01:51      1.03    0.40    1.00
  YS02001655YS02001652 CONDUIT    804.94     0  01:51      1.42    0.39    1.00
  YS02001658YS02001655 CONDUIT    804.81     0  01:51      2.00    0.34    1.00
  YS02001661YS02001658 CONDUIT    803.49     0  01:51      2.45    0.32    1.00
  YS02001664YS02001661 CONDUIT    817.70     0  01:50      2.45    0.26    0.80
  YS02001745YS02001748 CONDUIT    642.10     0  01:50      2.35    0.25    0.94
  YS02001748YS02001751 CONDUIT    567.90     0  01:50      1.83    0.29    1.00
  YS02001751YS02001754 CONDUIT    568.10     0  01:50      1.55    0.27    1.00
  YS02001754YS02001757 CONDUIT    568.44     0  01:50      0.72    0.23    1.00
  YS02001757CaochengTiaoxuchi CONDUIT   3484.96     0  01:50      4.56    1.51    1.00
  YS02001759YS02001757 CONDUIT   1378.01     0  01:49      1.75    0.98    1.00
  YS02001762YS02001759 CONDUIT    811.27     0  01:52      1.03    0.93    1.00
  YS02001765YS02001762 CONDUIT    810.72     0  01:52      1.03    0.76    1.00
  YS02001767YS02001765 CONDUIT    810.13     0  01:52      1.03    1.02    1.00
  YS02001770YS02001767 CONDUIT    809.22     0  01:52      1.03    3.21    1.00
  YS02001774YS02001770 CONDUIT    511.10     0  01:48      0.65    0.33    1.00
  YS02001779YS02001774 CONDUIT    517.49     0  01:48      0.66    0.26    1.00
  YS02001783YS02001784 CONDUIT   1158.80     0  01:49      2.31    1.60    1.00
  YS02001784YS02001785 CONDUIT   1159.64     0  01:49      2.31    2.70    1.00
  YS02001786YS02001788 CONDUIT   1160.79     0  01:48      2.47    2.24    0.89
  YS02001788YS02001790 CONDUIT   1169.67     0  01:50      2.71    0.86    0.84
  YS02001790YS02001791 CONDUIT   1282.50     0  01:55      3.43    1.40    0.70
  YS02001791YS02001793 CONDUIT   1237.35     0  01:58      6.75    0.53    0.44
  YS02001793JiankangQianchi CONDUIT   1238.42     0  01:54      2.49    0.10    0.65
  YS02001882YS02001884 CONDUIT    115.88     0  01:47      0.15    0.13    1.00
  YS02001884YS02001887 CONDUIT    127.49     0  01:46      0.16    0.17    1.00
  YS02001887YS02001890 CONDUIT    644.80     0  01:50      0.82    1.10    1.00
  YS02001890YS02001895 CONDUIT    541.22     0  01:48      0.69    0.25    1.00
  YS02001895YS02001898 CONDUIT    541.25     0  01:47      0.69    0.94    1.00
  YS02001898YS02001901 CONDUIT    541.09     0  01:47      0.69    0.35    1.00
  YS02001901YS02001904 CONDUIT    541.13     0  01:47      0.69    0.84    1.00
  YS02001904YS02001907 CONDUIT    540.13     0  01:47      0.69    0.19    1.00
  YS02001907YS02006553 CONDUIT    801.55     0  02:08      0.89    0.94    1.00
  YS02001910YS02001907 CONDUIT   1109.43     0  01:49      1.41    0.63    1.00
  YS02001915YS02001910 CONDUIT   1109.58     0  01:49      1.41    0.55    1.00
  YS02001918YS02001915 CONDUIT    582.83     0  01:47      0.74    0.32    1.00
  YS02001920YS02001918 CONDUIT    614.27     0  01:47      0.78    0.59    1.00
  YS02001923YS02001920 CONDUIT    568.25     0  01:48      0.73    0.26    1.00
  YS02001926YS02001923 CONDUIT    781.15     0  01:48      1.21    1.12    1.00
  YS02001929YS02001926 CONDUIT    556.29     0  01:48      1.19    0.26    1.00
  YS02006553YS02006556 CONDUIT    801.06     0  02:08      1.02    0.69    1.00
  YS02006556YS02006558 CONDUIT    803.37     0  02:08      1.02    0.63    1.00
  YS02006558YS02006561 CONDUIT   1176.09     0  01:48      4.16    2.60    1.00
  YS02006561YS02001783 CONDUIT   1158.55     0  01:49      2.30    0.60    1.00
  YS02163301YS02001633 CONDUIT    925.48     0  01:47      1.18    0.87    1.00
  YS02163601YS02164001 CONDUIT   1445.82     0  01:47      1.84    1.28    1.00
  YS02164001YS02001641 CONDUIT   1445.53     0  01:47      1.84    1.97    1.00
  CC-R1                PUMP       683.00     0  00:00              1.00
  CC-R2                PUMP       683.00     0  00:00              1.00
  CC-S1                PUMP       200.00     0  00:00              1.00
  CC-S2                PUMP       200.00     0  00:00              1.00
  JK-R1                PUMP      1000.00     0  00:00              1.00
  JK-R2                PUMP      1000.00     0  00:00              1.00
  JK-S                 PUMP       300.00     0  00:00              1.00
  
  
  ***************************
  Flow Classification Summary
  ***************************
  
  -------------------------------------------------------------------------------------
                      Adjusted    ---------- Fraction of Time in Flow Class ---------- 
                       /Actual         Up    Down  Sub   Sup   Up    Down  Norm  Inlet 
  Conduit               Length    Dry  Dry   Dry   Crit  Crit  Crit  Crit  Ltd   Ctrl  
  -------------------------------------------------------------------------------------
  1                       1.00   0.00  0.00  0.00  0.00  1.00  0.00  0.00  0.43  0.00
  WS02003060WS02003069    1.00   0.00  0.00  0.00  0.98  0.02  0.00  0.00  0.71  0.00
  WS02003066WSF200        1.00   0.12  0.00  0.00  0.00  0.87  0.00  0.00  0.75  0.00
  WS02003067WS02003066    1.00   0.10  0.02  0.00  0.88  0.00  0.00  0.00  0.00  0.00
  WS02003069WS02003072    1.00   0.00  0.00  0.00  0.99  0.01  0.00  0.00  0.73  0.00
  WS02003072WS02003073    1.00   0.00  0.00  0.00  0.00  0.00  0.00  1.00  0.00  0.00
  WS02004401WS02004402    1.00   0.02  0.00  0.00  0.98  0.00  0.00  0.00  0.00  0.00
  WS02004402WS02004403    1.00   0.02  0.00  0.00  0.97  0.00  0.00  0.00  0.00  0.00
  WS02004403WS02004404    1.00   0.00  0.03  0.00  0.97  0.00  0.00  0.00  0.00  0.00
  WS02004404WS02004405    1.00   0.00  0.00  0.00  1.00  0.00  0.00  0.00  0.01  0.00
  WS02004405WS02004406    1.00   0.00  0.00  0.00  1.00  0.00  0.00  0.00  0.00  0.00
  WS02004406WS02004407    1.00   0.00  0.05  0.00  0.95  0.00  0.00  0.00  0.00  0.00
  WS02004407WS02004409    1.00   0.05  0.00  0.00  0.94  0.01  0.00  0.00  0.94  0.00
  WS02004409WS02004410    1.00   0.05  0.00  0.00  0.95  0.00  0.00  0.00  0.03  0.00
  WS02004410WS02004411    1.00   0.05  0.00  0.00  0.95  0.00  0.00  0.00  0.01  0.00
  WS02004411WS02004412    1.00   0.05  0.00  0.00  0.95  0.00  0.00  0.00  0.00  0.00
  WS02004412WS02004413    1.00   0.05  0.00  0.00  0.94  0.00  0.00  0.00  0.01  0.00
  WS02004413WS02003067    1.00   0.06  0.04  0.00  0.00  0.00  0.90  0.00  0.00  0.00
  WS02006109WS02006110    1.00   0.00  0.01  0.00  0.98  0.00  0.01  0.00  0.00  0.00
  WS02006110WS02006113    1.00   0.01  0.01  0.00  0.98  0.00  0.00  0.00  0.00  0.00
  WS02006111WS02006112    1.00   0.02  0.00  0.00  0.98  0.00  0.00  0.00  0.98  0.00
  WS02006112WS02006115    1.00   0.02  0.00  0.00  0.97  0.00  0.00  0.00  0.00  0.00
  WS02006113WS02006111    1.00   0.02  0.00  0.00  0.00  0.98  0.00  0.00  0.12  0.00
  WS02006115WS02006116    1.00   0.02  0.00  0.00  0.97  0.00  0.00  0.01  0.00  0.00
  WS02006116WS02004401    1.00   0.02  0.00  0.00  0.98  0.00  0.00  0.00  0.00  0.00
  WS02006228WS02006109    1.00   0.00  0.00  0.00  1.00  0.00  0.00  0.00  0.00  0.00
  WS02006229WS02006228    1.00   0.00  0.00  0.00  0.99  0.00  0.00  0.01  0.00  0.00
  WS02006230WS02006229    1.00   0.00  0.00  0.00  0.99  0.00  0.00  0.01  0.01  0.00
  WS02006231WS02006230    1.00   0.00  0.00  0.00  0.27  0.00  0.73  0.00  0.00  0.00
  WS02006232WS02006231    1.00   0.00  0.00  0.00  0.98  0.00  0.01  0.00  0.00  0.00
  WS02006234WS02006232    1.00   0.00  0.00  0.00  1.00  0.00  0.00  0.00  0.16  0.00
  WS02006235WS02006234    1.00   0.00  0.00  0.00  0.78  0.00  0.22  0.00  0.00  0.00
  WS02006238WS02006235    1.00   0.00  0.00  0.00  1.00  0.00  0.00  0.00  0.00  0.00
  WS02006239WS02006238    1.00   0.00  0.00  0.00  1.00  0.00  0.00  0.00  0.30  0.00
  WS02006240WS02006239    1.00   0.00  0.00  0.00  0.62  0.00  0.00  0.37  0.03  0.00
  WS02006242WS02006240    1.00   0.00  0.00  0.00  0.98  0.00  0.02  0.00  0.00  0.00
  WS02006243WS02006242    1.00   0.00  0.00  0.00  0.98  0.00  0.00  0.02  0.52  0.00
  WS02006245WS02006243    1.00   0.00  0.00  0.00  0.72  0.00  0.00  0.28  0.01  0.00
  WS02006247WS02006245    1.00   0.00  0.00  0.00  0.98  0.00  0.00  0.02  0.00  0.00
  WS02006248WS02006247    1.00   0.00  0.00  0.00  0.98  0.00  0.00  0.02  0.29  0.00
  WS02006249WS02006248    1.00   0.00  0.00  0.00  0.48  0.00  0.52  0.00  0.00  0.00
  WS02006251WS02006249    1.00   0.00  0.00  0.00  0.99  0.01  0.00  0.00  0.54  0.00
  WS02006252WS02006251    1.00   0.00  0.56  0.00  0.12  0.00  0.32  0.00  0.00  0.00
  WS02006256WS02006235    1.00   0.00  0.00  0.00  1.00  0.00  0.00  0.00  0.00  0.00
  WSF200WS02003060        1.00   0.00  0.12  0.00  0.33  0.54  0.00  0.00  0.51  0.00
  YS02001580YS02001583    1.00   0.22  0.60  0.00  0.19  0.00  0.00  0.00  0.69  0.00
  YS02001583YS02001586    1.00   0.43  0.33  0.00  0.24  0.00  0.00  0.00  0.69  0.00
  YS02001586YS02001590    1.00   0.13  0.00  0.00  0.41  0.04  0.00  0.42  0.35  0.00
  YS02001590YS02001593    1.00   0.13  0.01  0.00  0.11  0.00  0.76  0.00  0.00  0.00
  YS02001593YS02001596    1.00   0.13  0.00  0.00  0.13  0.01  0.00  0.73  0.02  0.00
  YS02001596YS02001600    1.00   0.14  0.00  0.00  0.20  0.01  0.00  0.66  0.05  0.00
  YS02001600YS02001601    1.00   0.13  0.01  0.00  0.86  0.00  0.00  0.00  0.61  0.00
  YS02001601YS02001602    1.00   0.13  0.01  0.00  0.86  0.00  0.00  0.00  0.00  0.00
  YS02001602YS02001605    1.00   0.14  0.00  0.00  0.86  0.00  0.00  0.00  0.00  0.00
  YS02001605YS02001607    1.00   0.14  0.00  0.00  0.86  0.00  0.00  0.00  0.00  0.00
  YS02001607YS02001610    1.00   0.13  0.01  0.00  0.86  0.00  0.00  0.00  0.01  0.00
  YS02001610YS02001613    1.00   0.13  0.00  0.00  0.87  0.00  0.00  0.00  0.00  0.00
  YS02001613YS02001616    1.00   0.13  0.00  0.00  0.87  0.00  0.00  0.00  0.00  0.00
  YS02001616YS02001619    1.00   0.13  0.00  0.00  0.87  0.00  0.00  0.00  0.00  0.00
  YS02001619YS02001622    1.00   0.13  0.00  0.00  0.87  0.00  0.00  0.00  0.29  0.00
  YS02001622YS02001625    1.00   0.13  0.00  0.00  0.87  0.00  0.00  0.00  0.04  0.00
  YS02001625YS02001629    1.00   0.13  0.05  0.00  0.15  0.00  0.67  0.00  0.00  0.00
  YS02001629YS02163301    1.00   0.15  0.01  0.00  0.84  0.00  0.00  0.00  0.00  0.00
  YS02001633YS02163601    1.00   0.00  0.01  0.00  0.99  0.00  0.00  0.00  0.15  0.00
  YS02001641YS02001644    1.00   0.00  0.01  0.00  0.99  0.00  0.00  0.00  0.00  0.00
  YS02001644YS02001647    1.00   0.00  0.17  0.00  0.83  0.00  0.00  0.00  0.00  0.00
  YS02001647YS02001649    1.00   0.00  0.17  0.00  0.55  0.28  0.00  0.00  0.57  0.00
  YS02001649YS02001757    1.00   0.00  0.00  0.00  0.85  0.15  0.00  0.00  0.46  0.00
  YS02001652YS02001649    1.00   0.00  0.00  0.00  0.97  0.03  0.00  0.00  0.74  0.00
  YS02001655YS02001652    1.00   0.00  0.00  0.00  0.18  0.02  0.00  0.81  0.06  0.00
  YS02001658YS02001655    1.00   0.00  0.14  0.00  0.65  0.21  0.00  0.00  0.69  0.00
  YS02001661YS02001658    1.00   0.14  0.00  0.00  0.49  0.37  0.00  0.00  0.72  0.00
  YS02001664YS02001661    1.00   0.13  0.00  0.00  0.76  0.11  0.00  0.00  0.86  0.00
  YS02001745YS02001748    1.00   0.00  0.00  0.00  0.08  0.01  0.00  0.91  0.05  0.00
  YS02001748YS02001751    1.00   0.00  0.00  0.00  0.81  0.19  0.00  0.00  0.78  0.00
  YS02001751YS02001754    1.00   0.00  0.00  0.00  0.14  0.01  0.00  0.85  0.03  0.00
  YS02001754YS02001757    1.00   0.00  0.00  0.00  1.00  0.00  0.00  0.00  0.84  0.00
  YS02001757CaochengTiaoxuchi    1.00   0.00  0.00  0.00  0.97  0.03  0.00  0.00  0.59  0.00
  YS02001759YS02001757    1.00   0.00  0.00  0.00  1.00  0.00  0.00  0.00  0.54  0.00
  YS02001762YS02001759    1.00   0.00  0.00  0.00  1.00  0.00  0.00  0.00  0.06  0.00
  YS02001765YS02001762    1.00   0.00  0.00  0.00  1.00  0.00  0.00  0.00  0.69  0.00
  YS02001767YS02001765    1.00   0.00  0.00  0.00  1.00  0.00  0.00  0.00  0.01  0.00
  YS02001770YS02001767    1.00   0.00  0.00  0.00  1.00  0.00  0.00  0.00  0.00  0.00
  YS02001774YS02001770    1.00   0.00  0.13  0.00  0.70  0.00  0.17  0.00  0.03  0.00
  YS02001779YS02001774    1.00   0.00  0.00  0.00  1.00  0.00  0.00  0.00  0.79  0.00
  YS02001783YS02001784    1.00   0.00  0.18  0.00  0.82  0.00  0.00  0.00  0.56  0.00
  YS02001784YS02001785    1.00   0.00  0.00  0.00  1.00  0.00  0.00  0.00  0.17  0.00
  YS02001786YS02001788    1.00   0.00  0.00  0.00  0.79  0.21  0.00  0.00  0.00  0.00
  YS02001788YS02001790    1.00   0.00  0.00  0.00  0.21  0.79  0.00  0.00  0.81  0.00
  YS02001790YS02001791    1.00   0.00  0.00  0.00  0.01  0.99  0.00  0.00  0.16  0.00
  YS02001791YS02001793    1.00   0.00  0.00  0.00  0.00  1.00  0.00  0.00  0.01  0.00
  YS02001793JiankangQianchi    1.00   0.00  0.00  0.00  0.98  0.02  0.00  0.00  0.96  0.00
  YS02001882YS02001884    1.00   0.15  0.01  0.00  0.84  0.00  0.00  0.00  0.00  0.00
  YS02001884YS02001887    1.00   0.06  0.05  0.00  0.89  0.00  0.00  0.00  0.00  0.00
  YS02001887YS02001890    1.00   0.00  0.00  0.00  0.97  0.00  0.03  0.00  0.00  0.00
  YS02001890YS02001895    1.00   0.00  0.16  0.00  0.84  0.00  0.00  0.00  0.00  0.00
  YS02001895YS02001898    1.00   0.16  0.00  0.00  0.82  0.00  0.02  0.00  0.00  0.00
  YS02001898YS02001901    1.00   0.17  0.00  0.00  0.83  0.00  0.00  0.00  0.01  0.00
  YS02001901YS02001904    1.00   0.17  0.00  0.00  0.83  0.00  0.00  0.00  0.00  0.00
  YS02001904YS02001907    1.00   0.00  0.16  0.00  0.83  0.00  0.00  0.00  0.00  0.00
  YS02001907YS02006553    1.00   0.00  0.02  0.00  0.98  0.00  0.00  0.00  0.00  0.00
  YS02001910YS02001907    1.00   0.00  0.00  0.00  0.97  0.00  0.00  0.03  0.12  0.00
  YS02001915YS02001910    1.00   0.00  0.00  0.00  0.97  0.03  0.00  0.00  0.16  0.00
  YS02001918YS02001915    1.00   0.00  0.01  0.00  0.98  0.02  0.00  0.00  0.76  0.00
  YS02001920YS02001918    1.00   0.00  0.01  0.00  0.99  0.00  0.00  0.00  0.00  0.00
  YS02001923YS02001920    1.00   0.00  0.00  0.00  1.00  0.00  0.00  0.00  0.93  0.00
  YS02001926YS02001923    1.00   0.00  0.07  0.00  0.06  0.00  0.87  0.00  0.00  0.00
  YS02001929YS02001926    1.00   0.00  0.13  0.00  0.87  0.00  0.00  0.00  0.83  0.00
  YS02006553YS02006556    1.00   0.01  0.00  0.00  0.99  0.00  0.00  0.00  0.03  0.00
  YS02006556YS02006558    1.00   0.00  0.00  0.00  1.00  0.00  0.00  0.00  0.00  0.00
  YS02006558YS02006561    1.00   0.18  0.00  0.00  0.05  0.77  0.00  0.00  0.19  0.00
  YS02006561YS02001783    1.00   0.18  0.00  0.00  0.08  0.74  0.00  0.00  0.70  0.00
  YS02163301YS02001633    1.00   0.00  0.15  0.00  0.85  0.00  0.00  0.00  0.00  0.00
  YS02163601YS02164001    1.00   0.00  0.08  0.00  0.92  0.00  0.00  0.00  0.00  0.00
  YS02164001YS02001641    1.00   0.01  0.07  0.00  0.92  0.00  0.00  0.00  0.06  0.00
  
  
  *************************
  Conduit Surcharge Summary
  *************************
  
  ----------------------------------------------------------------------------
                                                           Hours        Hours 
                         --------- Hours Full --------   Above Full   Capacity
  Conduit                Both Ends  Upstream  Dnstream   Normal Flow   Limited
  ----------------------------------------------------------------------------
  WS02003072WS02003073        0.01      0.01      0.01      1.20         0.01
  WS02004403WS02004404        0.01      0.01      0.04      0.01         0.01
  WS02004404WS02004405        0.01      0.04      0.01      3.34         0.01
  WS02004405WS02004406        0.01      0.01      0.01      0.80         0.01
  WS02006109WS02006110        0.85      0.85      2.08      0.91         0.01
  WS02006110WS02006113        0.01      0.01      2.07      0.01         0.01
  WS02006111WS02006112        0.01      0.01      2.19      0.01         0.01
  WS02006112WS02006115        0.01      0.01      0.98      0.01         0.01
  WS02006228WS02006109        2.05      2.08      2.05      2.33         2.04
  WS02006229WS02006228        2.04      2.05      2.04      2.16         2.03
  WS02006230WS02006229        2.11      2.14      2.11      4.06         2.11
  WS02006231WS02006230        0.86      0.86      0.95      3.63         0.01
  WS02006232WS02006231        0.92      0.92      2.10      0.95         0.01
  WS02006234WS02006232        2.03      2.03      2.10      0.95         0.95
  WS02006235WS02006234        1.26      1.27      2.06      3.48         0.01
  WS02006238WS02006235        2.07      2.07      2.10      0.01         0.01
  WS02006239WS02006238        2.08      2.09      2.08      1.92         1.74
  WS02006240WS02006239        1.92      1.93      2.01      1.93         1.68
  WS02006242WS02006240        1.92      1.92      2.05      2.05         0.01
  WS02006243WS02006242        1.88      1.88      1.98      0.01         0.02
  WS02006245WS02006243        1.87      1.87      1.87      1.08         1.11
  WS02006247WS02006245        1.87      1.87      1.87      3.36         1.86
  WS02006248WS02006247        1.87      1.87      1.87      0.01         0.03
  WS02006249WS02006248        1.86      1.87      1.86      3.29         0.01
  WS02006251WS02006249        1.86      1.87      1.86      2.02         1.82
  WS02006252WS02006251        2.06      2.06      2.07      2.07         0.01
  WS02006256WS02006235        3.49      3.52      5.53      1.34         0.01
  YS02001580YS02001583        0.53      0.53      0.59      0.01         0.01
  YS02001583YS02001586        0.54      0.54      0.68      0.01         0.01
  YS02001586YS02001590        0.69      0.69      0.75      0.01         0.01
  YS02001590YS02001593        0.76      0.76      0.77      0.81         0.01
  YS02001593YS02001596        0.77      0.77      0.86      0.01         0.01
  YS02001596YS02001600        0.91      0.91      1.01      0.01         0.01
  YS02001600YS02001601        1.08      1.08      1.43      0.01         0.01
  YS02001601YS02001602        1.29      1.29      1.47      1.03         0.01
  YS02001602YS02001605        1.22      1.22      1.29      2.18         0.01
  YS02001605YS02001607        1.17      1.22      1.17      1.38         1.17
  YS02001607YS02001610        0.73      0.73      0.75      0.01         0.01
  YS02001610YS02001613        0.72      0.72      0.75      0.01         0.01
  YS02001613YS02001616        0.68      0.68      0.72      0.01         0.01
  YS02001616YS02001619        0.66      0.66      0.68      0.01         0.01
  YS02001619YS02001622        0.66      0.66      0.66      0.79         0.62
  YS02001622YS02001625        0.66      0.66      0.84      0.01         0.01
  YS02001625YS02001629        0.61      0.61      0.84      0.01         0.01
  YS02001629YS02163301        0.83      0.83      0.84      0.20         0.19
  YS02001633YS02163601        0.86      0.86      0.89      0.39         0.38
  YS02001641YS02001644        0.77      0.80      0.77      1.50         0.76
  YS02001644YS02001647        0.57      0.57      0.77      0.04         0.01
  YS02001647YS02001649        0.57      0.57      0.68      0.01         0.01
  YS02001649YS02001757        0.68      0.68      0.75      0.13         0.17
  YS02001652YS02001649        0.50      0.50      0.68      0.01         0.01
  YS02001655YS02001652        0.31      0.31      0.48      0.01         0.01
  YS02001658YS02001655        0.12      0.12      0.31      0.01         0.01
  YS02001661YS02001658        0.01      0.01      0.12      0.01         0.01
  YS02001664YS02001661        0.01      0.01      0.02      0.01         0.01
  YS02001745YS02001748        0.01      0.01      0.01      0.01         0.01
  YS02001748YS02001751        0.08      0.08      0.19      0.01         0.01
  YS02001751YS02001754        0.19      0.19      0.36      0.01         0.01
  YS02001754YS02001757        0.41      0.41      0.75      0.01         0.01
  YS02001757CaochengTiaoxuchi        0.67      0.75      1.81      0.34         0.24
  YS02001759YS02001757        0.64      0.64      0.75      0.01         0.02
  YS02001762YS02001759        0.61      0.61      0.64      0.01         0.02
  YS02001765YS02001762        0.56      0.56      0.61      0.01         0.01
  YS02001767YS02001765        0.52      0.52      0.56      0.02         0.05
  YS02001770YS02001767        0.52      0.52      0.52      0.49         0.37
  YS02001774YS02001770        0.49      0.49      0.60      0.01         0.01
  YS02001779YS02001774        0.36      0.36      0.60      0.01         0.01
  YS02001783YS02001784        0.47      0.49      0.47      0.63         0.47
  YS02001784YS02001785        0.37      0.47      0.37      0.86         0.37
  YS02001786YS02001788        0.01      0.37      0.01      0.73         0.01
  YS02001790YS02001791        0.01      0.01      0.01      0.46         0.01
  YS02001793JiankangQianchi        0.01      0.01      7.43      0.01         0.01
  YS02001882YS02001884        0.44      0.44      0.45      0.01         0.01
  YS02001884YS02001887        0.47      0.47      0.48      0.01         0.01
  YS02001887YS02001890        0.50      0.50      0.51      0.06         0.01
  YS02001890YS02001895        0.43      0.43      0.52      0.01         0.01
  YS02001895YS02001898        0.42      0.42      0.43      0.01         0.01
  YS02001898YS02001901        0.43      0.43      0.47      0.01         0.01
  YS02001901YS02001904        0.46      0.46      0.47      0.01         0.01
  YS02001904YS02001907        0.46      0.46      0.70      0.01         0.01
  YS02001907YS02006553        0.87      0.87      0.94      0.01         0.01
  YS02001910YS02001907        0.52      0.52      0.69      0.01         0.01
  YS02001915YS02001910        0.44      0.44      0.52      0.01         0.01
  YS02001918YS02001915        0.35      0.35      0.44      0.01         0.01
  YS02001920YS02001918        0.35      0.35      0.37      0.01         0.01
  YS02001923YS02001920        0.31      0.31      0.37      0.01         0.01
  YS02001926YS02001923        0.01      0.01      0.02      0.01         0.01
  YS02001929YS02001926        0.01      0.01      0.02      0.01         0.01
  YS02006553YS02006556        0.61      0.61      0.70      0.01         0.01
  YS02006556YS02006558        0.65      0.65      0.72      0.01         0.01
  YS02006558YS02006561        0.39      0.60      0.39      0.81         0.39
  YS02006561YS02001783        0.32      0.32      0.49      0.01         0.01
  YS02163301YS02001633        0.84      0.84      0.88      0.01         0.01
  YS02163601YS02164001        0.81      0.81      0.89      0.05         0.01
  YS02164001YS02001641        0.80      0.81      0.80      0.75         0.65
  
  
  ***************
  Pumping Summary
  ***************
  
  ---------------------------------------------------------------------------------------------------------
                                                  Min       Avg       Max     Total     Power    % Time Off
                        Percent   Number of      Flow      Flow      Flow    Volume     Usage    Pump Curve
  Pump                 Utilized   Start-Ups       LPS       LPS       LPS  10^6 ltr     Kw-hr    Low   High
  ---------------------------------------------------------------------------------------------------------
  CC-R1                   16.52           3      0.00    683.00    683.00     3.250     60.24    0.0   11.7
  CC-R2                   14.59           6      0.00    683.00    683.00     2.869     52.84    0.0   21.4
  CC-S1                   41.84           7      0.00    200.00    200.00     2.410     14.32    0.0    0.0
  CC-S2                   26.78           6      0.00    200.00    200.00     1.542      9.08    0.0    0.0
  JK-R1                    4.88          12      0.00   1000.00   1000.00     1.405     14.27    0.0    0.0
  JK-R2                    3.32           9      0.00   1000.00   1000.00     0.956      8.52    0.0    0.0
  JK-S                    16.71          10      0.00    300.00    300.00     1.444     24.09    0.0    0.0
  

  Analysis begun on:  Tue Apr 15 14:52:18 2025
  Analysis ended on:  Tue Apr 15 14:52:20 2025
  Total elapsed time: 00:00:02