
  EPA STORM WATER MANAGEMENT MODEL - VERSION 5.2 (Build 5.2.4)
  PYSWMM TOOLKIT API - VERSION v1.0 (2023-11-27)
  ------------------------------------------------------------

  WARNING 04: minimum elevation drop used for Conduit WS02004404WS02004405
  WARNING 03: negative offset ignored for Link YS02001904YS02001907
  
  ****************
  Analysis Options
  ****************
  Flow Units ............... LPS
  Process Models:
    Rainfall/Runoff ........ YES
    RDII ................... NO
    Snowmelt ............... NO
    Groundwater ............ NO
    Flow Routing ........... YES
    Ponding Allowed ........ NO
    Water Quality .......... NO
  Infiltration Method ...... HORTON
  Flow Routing Method ...... DYNWAVE
  Surcharge Method ......... EXTRAN
  Starting Date ............ 08/28/2015 08:00:00
  Ending Date .............. 08/28/2015 16:00:00
  Antecedent Dry Days ...... 8.0
  Report Time Step ......... 00:01:00
  Wet Time Step ............ 00:01:00
  Dry Time Step ............ 00:01:00
  Routing Time Step ........ 30.00 sec
  Variable Time Step ....... YES
  Maximum Trials ........... 8
  Number of Threads ........ 4
  Head Tolerance ........... 0.001500 m
  
  
  **************************        Volume         Depth
  Runoff Quantity Continuity     hectare-m            mm
  **************************     ---------       -------
  Total Precipitation ......         1.447        43.610
  Evaporation Loss .........         0.000         0.000
  Infiltration Loss ........         0.093         2.817
  Surface Runoff ...........         1.320        39.810
  Final Storage ............         0.033         0.992
  Continuity Error (%) .....        -0.021
  
  
  **************************        Volume        Volume
  Flow Routing Continuity        hectare-m      10^6 ltr
  **************************     ---------     ---------
  Dry Weather Inflow .......         0.025         0.251
  Wet Weather Inflow .......         1.320        13.203
  Groundwater Inflow .......         0.000         0.000
  RDII Inflow ..............         0.000         0.000
  External Inflow ..........         0.083         0.834
  External Outflow .........         1.210        12.103
  Flooding Loss ............         0.184         1.845
  Evaporation Loss .........         0.000         0.000
  Exfiltration Loss ........         0.000         0.000
  Initial Stored Volume ....         0.243         2.431
  Final Stored Volume ......         0.280         2.797
  Continuity Error (%) .....        -0.160
  
  
  *************************
  Highest Continuity Errors
  *************************
  Node YS02001583 (-14.33%)
  Node YS02001884 (4.34%)
  Node YS02001774 (1.54%)
  Node WS02006256 (-1.01%)
  
  
  ***************************
  Time-Step Critical Elements
  ***************************
  Link WS02006252WS02006251 (47.55%)
  Link WS02004404WS02004405 (13.80%)
  Link WS02006235WS02006234 (10.31%)
  Link WS02006238WS02006235 (10.22%)
  Link WS02003066WSF200 (6.53%)
  
  
  ********************************
  Highest Flow Instability Indexes
  ********************************
  Link WS02006113WS02006111 (45)
  Link WS02006111WS02006112 (25)
  Link WS02006256WS02006235 (11)
  Link WS02006110WS02006113 (10)
  Link WS02006238WS02006235 (9)
  
  
  *********************************
  Most Frequent Nonconverging Nodes
  *********************************
  Node CC-1 (8.53%)
  Node CC-2 (8.53%)
  Node JK-1 (8.53%)
  Node JK-2 (8.53%)
  Node WSC (8.53%)
  
  
  *************************
  Routing Time Step Summary
  *************************
  Minimum Time Step           :     0.00 sec
  Average Time Step           :     2.10 sec
  Maximum Time Step           :     6.43 sec
  % of Time in Steady State   :     0.00
  Average Iterations per Step :     2.76
  % of Steps Not Converging   :     8.53
  Time Step Frequencies       :
     30.000 - 13.228 sec      :     0.00 %
     13.228 -  5.833 sec      :    10.05 %
      5.833 -  2.572 sec      :    22.49 %
      2.572 -  1.134 sec      :    15.63 %
      1.134 -  0.500 sec      :    51.83 %
  
  
  ***************************
  Subcatchment Runoff Summary
  ***************************
  
  ------------------------------------------------------------------------------------------------------------------------------
                            Total      Total      Total      Total     Imperv       Perv      Total       Total     Peak  Runoff
                           Precip      Runon       Evap      Infil     Runoff     Runoff     Runoff      Runoff   Runoff   Coeff
  Subcatchment                 mm         mm         mm         mm         mm         mm         mm    10^6 ltr      LPS
  ------------------------------------------------------------------------------------------------------------------------------
  sub60                     43.61       0.00       0.00       1.73      37.17       3.51      40.68        0.53   331.49   0.933
  sub61                     43.61       0.00       0.00       2.50      35.06       4.92      39.98        0.73   454.99   0.917
  sub62                     43.61       0.00       0.00       1.15      38.83       2.34      41.17        1.13   639.89   0.944
  sub63                     43.61       0.00       0.00       4.58      29.99       8.07      38.06        0.86   491.88   0.873
  sub64                     43.61       0.00       0.00       2.32      35.86       4.23      40.09        0.96   507.81   0.919
  sub65                     43.61       0.00       0.00       2.01      36.69       3.67      40.35        1.11   564.94   0.925
  sub66                     43.61       0.00       0.00       5.57      29.89       7.07      36.96        1.72   706.64   0.848
  sub67                     43.61       0.00       0.00       1.12      38.87       2.37      41.25        0.77   510.45   0.946
  sub68                     43.61       0.00       0.00       2.07      36.31       4.04      40.35        1.11   654.13   0.925
  sub69                     43.61       0.00       0.00       1.80      36.96       4.74      41.70        1.54   762.52   0.956
  sub70                     43.61       0.00       0.00       5.89      28.62       8.94      37.56        1.09   401.73   0.861
  sub71                     43.61       0.00       0.00       1.18      38.79       2.31      41.10        1.07   553.88   0.943
  sub72                     43.61       0.00       0.00       1.05      39.16       2.01      41.16        0.57   263.11   0.944
  
  
  ******************
  Node Depth Summary
  ******************
  
  ---------------------------------------------------------------------------------
                                 Average  Maximum  Maximum  Time of Max    Reported
                                   Depth    Depth      HGL   Occurrence   Max Depth
  Node                 Type       Meters   Meters   Meters  days hr:min      Meters
  ---------------------------------------------------------------------------------
  WS02003060           JUNCTION     0.23     0.38     5.31     0  03:06        0.38
  WS02003066           JUNCTION     0.19     0.29     5.85     0  03:05        0.29
  WS02003067           JUNCTION     0.49     0.70     6.02     0  03:05        0.70
  WS02003069           JUNCTION     0.25     0.42     5.01     0  03:06        0.42
  WS02003072           JUNCTION     0.31     0.49     4.86     0  03:07        0.49
  WS02003073           JUNCTION     0.18     0.29     4.36     0  03:07        0.29
  WS02004401           JUNCTION     0.57     0.85     6.85     0  03:03        0.85
  WS02004402           JUNCTION     0.60     0.87     6.83     0  03:03        0.87
  WS02004403           JUNCTION     0.62     0.89     6.82     0  03:03        0.89
  WS02004404           JUNCTION     0.70     0.96     6.81     0  03:03        0.96
  WS02004405           JUNCTION     0.70     0.95     6.80     0  03:03        0.95
  WS02004406           JUNCTION     0.71     0.95     6.78     0  03:03        0.95
  WS02004407           JUNCTION     0.17     0.29     6.61     0  03:03        0.29
  WS02004409           JUNCTION     0.37     0.66     6.43     0  03:04        0.66
  WS02004410           JUNCTION     0.40     0.67     6.39     0  03:04        0.67
  WS02004411           JUNCTION     0.42     0.68     6.36     0  03:04        0.68
  WS02004412           JUNCTION     0.45     0.69     6.33     0  03:05        0.69
  WS02004413           JUNCTION     0.61     0.85     6.32     0  03:05        0.85
  WS02006109           JUNCTION     0.63     1.10     7.72     0  03:39        1.10
  WS02006110           JUNCTION     0.63     1.09     7.68     0  02:16        1.06
  WS02006111           JUNCTION     0.17     0.29     6.99     0  02:38        0.29
  WS02006112           JUNCTION     0.72     1.05     6.93     0  03:02        1.04
  WS02006113           JUNCTION     0.26     0.46     7.35     0  02:38        0.46
  WS02006115           JUNCTION     0.45     0.75     6.89     0  03:02        0.74
  WS02006116           JUNCTION     0.54     0.83     6.87     0  03:02        0.82
  WS02006228           JUNCTION     0.61     1.10     7.75     0  03:39        1.10
  WS02006229           JUNCTION     0.58     1.13     7.83     0  02:15        1.08
  WS02006230           JUNCTION     0.58     1.28     8.02     0  02:15        1.18
  WS02006231           JUNCTION     0.39     1.00     8.12     0  02:15        0.94
  WS02006232           JUNCTION     0.52     1.17     8.21     0  02:15        1.16
  WS02006234           JUNCTION     0.44     1.22     8.38     0  02:56        1.21
  WS02006235           JUNCTION     0.47     1.32     8.49     0  02:56        1.32
  WS02006238           JUNCTION     0.50     1.36     8.51     0  02:56        1.36
  WS02006239           JUNCTION     0.47     1.36     8.57     0  02:56        1.36
  WS02006240           JUNCTION     0.43     1.33     8.62     0  02:56        1.33
  WS02006242           JUNCTION     0.50     1.39     8.66     0  02:56        1.39
  WS02006243           JUNCTION     0.41     1.26     8.68     0  02:56        1.26
  WS02006245           JUNCTION     0.42     1.21     8.70     0  02:56        1.21
  WS02006247           JUNCTION     0.44     1.20     8.70     0  02:56        1.20
  WS02006248           JUNCTION     0.40     1.10     8.69     0  02:16        1.10
  WS02006249           JUNCTION     0.44     1.09     8.69     0  01:58        1.09
  WS02006251           JUNCTION     0.44     1.39     9.06     0  01:58        1.14
  WS02006252           JUNCTION     0.33     1.50     9.74     0  00:00        0.69
  WS02006256           JUNCTION     0.88     2.35     9.28     0  00:00        2.35
  WSF200               JUNCTION     0.16     0.29     5.52     0  03:05        0.29
  YS02001580           JUNCTION     0.07     1.05     9.59     0  01:48        0.77
  YS02001583           JUNCTION     0.11     1.14     9.64     0  01:48        0.82
  YS02001586           JUNCTION     0.16     1.13     9.30     0  01:48        1.13
  YS02001590           JUNCTION     0.25     1.40     9.26     0  01:48        1.37
  YS02001593           JUNCTION     0.19     1.35     9.21     0  01:48        1.28
  YS02001596           JUNCTION     0.25     1.70     9.12     0  01:48        1.65
  YS02001600           JUNCTION     0.31     1.87     9.00     0  01:48        1.86
  YS02001601           JUNCTION     0.50     2.06     8.90     0  01:47        2.06
  YS02001602           JUNCTION     0.41     1.87     8.77     0  01:48        1.87
  YS02001605           JUNCTION     0.38     1.78     8.68     0  01:48        1.77
  YS02001607           JUNCTION     0.38     1.65     8.49     0  01:51        1.64
  YS02001610           JUNCTION     0.43     1.68     8.48     0  01:48        1.68
  YS02001613           JUNCTION     0.39     1.67     8.52     0  01:48        1.65
  YS02001616           JUNCTION     0.32     1.61     8.52     0  01:48        1.58
  YS02001619           JUNCTION     0.29     1.61     8.54     0  01:48        1.57
  YS02001622           JUNCTION     0.28     1.62     8.52     0  01:48        1.55
  YS02001625           JUNCTION     0.55     1.78     8.38     0  01:48        1.78
  YS02001629           JUNCTION     0.39     1.85     8.40     0  01:48        1.85
  YS02001633           JUNCTION     0.47     2.06     8.52     0  01:51        2.06
  YS02001641           JUNCTION     0.46     1.98     8.42     0  01:51        1.94
  YS02001644           JUNCTION     0.45     1.92     8.35     0  01:51        1.92
  YS02001647           JUNCTION     0.24     1.75     8.36     0  01:51        1.74
  YS02001649           JUNCTION     0.27     2.01     8.40     0  01:51        1.90
  YS02001652           JUNCTION     0.17     2.16     8.76     0  01:51        1.82
  YS02001655           JUNCTION     0.13     2.20     9.05     0  01:51        1.54
  YS02001658           JUNCTION     0.09     1.71     8.85     0  01:52        1.14
  YS02001661           JUNCTION     0.12     0.73     8.13     0  01:53        0.68
  YS02001664           JUNCTION     0.05     0.27     8.19     0  01:51        0.27
  YS02001745           JUNCTION     0.04     0.43     7.95     0  01:52        0.26
  YS02001748           JUNCTION     0.08     0.85     7.93     0  01:52        0.85
  YS02001751           JUNCTION     0.10     2.20     9.08     0  01:51        1.02
  YS02001754           JUNCTION     0.14     2.07     8.68     0  01:51        1.36
  YS02001757           JUNCTION     0.30     1.79     8.05     0  01:51        1.76
  YS02001759           JUNCTION     0.24     2.03     8.39     0  01:50        1.67
  YS02001762           JUNCTION     0.23     2.09     8.49     0  01:50        1.61
  YS02001765           JUNCTION     0.21     2.10     8.55     0  01:50        1.55
  YS02001767           JUNCTION     0.20     2.03     8.52     0  01:50        1.52
  YS02001770           JUNCTION     0.22     1.93     8.43     0  01:50        1.53
  YS02001774           JUNCTION     0.28     1.94     8.37     0  01:50        1.60
  YS02001779           JUNCTION     0.13     1.68     8.37     0  01:50        1.34
  YS02001783           JUNCTION     0.21     1.40     7.54     0  01:50        1.20
  YS02001784           JUNCTION     0.23     1.27     7.33     0  01:50        1.11
  YS02001786           JUNCTION     0.20     0.99     7.02     0  01:50        0.86
  YS02001788           JUNCTION     0.14     0.62     6.60     0  01:50        0.61
  YS02001790           JUNCTION     0.16     0.72     6.36     0  01:58        0.71
  YS02001791           JUNCTION     0.11     0.44     5.91     0  01:51        0.42
  YS02001793           JUNCTION     0.05     0.29     5.12     0  01:59        0.26
  YS02001882           JUNCTION     0.28     1.83     8.55     0  01:48        1.83
  YS02001884           JUNCTION     0.37     1.93     8.55     0  01:49        1.93
  YS02001887           JUNCTION     0.45     1.95     8.49     0  01:49        1.95
  YS02001890           JUNCTION     0.48     1.81     8.32     0  01:49        1.81
  YS02001895           JUNCTION     0.25     1.64     8.38     0  01:48        1.56
  YS02001898           JUNCTION     0.26     1.59     8.33     0  01:49        1.56
  YS02001901           JUNCTION     0.37     1.70     8.31     0  01:49        1.67
  YS02001904           JUNCTION     0.35     1.66     8.29     0  01:49        1.64
  YS02001907           JUNCTION     0.67     1.96     8.25     0  01:49        1.96
  YS02001910           JUNCTION     0.47     2.01     8.51     0  01:50        1.83
  YS02001915           JUNCTION     0.28     1.96     8.68     0  01:50        1.70
  YS02001918           JUNCTION     0.15     1.81     8.88     0  01:50        1.41
  YS02001920           JUNCTION     0.22     2.10     9.11     0  01:50        1.51
  YS02001923           JUNCTION     0.11     2.03     9.29     0  01:50        1.32
  YS02001926           JUNCTION     0.15     1.90     9.35     0  01:50        1.18
  YS02001929           JUNCTION     0.08     1.78     9.47     0  01:50        0.99
  YS02006553           JUNCTION     0.68     2.03     8.32     0  01:50        1.97
  YS02006556           JUNCTION     0.65     2.09     8.40     0  01:50        1.92
  YS02006558           JUNCTION     0.69     2.14     8.41     0  01:50        1.96
  YS02006561           JUNCTION     0.13     1.10     7.76     0  01:50        0.87
  YS02163301           JUNCTION     0.42     1.95     8.46     0  01:51        1.95
  YS02163601           JUNCTION     0.51     2.08     8.48     0  01:51        2.07
  YS02164001           JUNCTION     0.44     2.00     8.46     0  01:51        1.97
  CC-1                 OUTFALL      0.00     0.00     0.00     0  00:00        0.00
  CC-2                 OUTFALL      0.00     0.00     0.00     0  00:00        0.00
  JK-1                 OUTFALL      0.00     0.00     0.00     0  00:00        0.00
  JK-2                 OUTFALL      0.00     0.00     0.00     0  00:00        0.00
  WSC                  OUTFALL      0.18     0.29     0.96     0  03:08        0.29
  CC-storage           STORAGE      0.90     1.40     6.90     0  02:18        1.40
  JK-storage           STORAGE      3.02     4.23     5.03     0  01:59        4.12
  
  
  *******************
  Node Inflow Summary
  *******************
  
  -------------------------------------------------------------------------------------------------
                                  Maximum  Maximum                  Lateral       Total        Flow
                                  Lateral    Total  Time of Max      Inflow      Inflow     Balance
                                   Inflow   Inflow   Occurrence      Volume      Volume       Error
  Node                 Type           LPS      LPS  days hr:min    10^6 ltr    10^6 ltr     Percent
  -------------------------------------------------------------------------------------------------
  WS02003060           JUNCTION     16.53   541.26     0  03:05       0.476        4.98       0.045
  WS02003066           JUNCTION      0.00   524.14     0  03:05           0        4.51       0.032
  WS02003067           JUNCTION      0.00   523.90     0  03:05           0        4.51       0.092
  WS02003069           JUNCTION      0.32   541.32     0  03:06     0.00922        4.99       0.080
  WS02003072           JUNCTION      0.00   540.53     0  03:06           0        4.98       0.143
  WS02003073           JUNCTION      1.82   541.75     0  03:07      0.0524        5.03       0.116
  WS02004401           JUNCTION      0.00   534.61     0  03:02           0        4.61       0.220
  WS02004402           JUNCTION      0.00   533.49     0  03:03           0         4.6       0.223
  WS02004403           JUNCTION      0.00   533.06     0  03:03           0        4.59       0.219
  WS02004404           JUNCTION      0.16   532.29     0  03:03     0.00467        4.59       0.187
  WS02004405           JUNCTION      0.04   532.06     0  03:03      0.0011        4.58       0.266
  WS02004406           JUNCTION      0.00   532.48     0  03:03           0        4.57       0.456
  WS02004407           JUNCTION      0.00   531.85     0  03:03           0        4.54       0.023
  WS02004409           JUNCTION      0.00   531.64     0  03:03           0        4.54       0.056
  WS02004410           JUNCTION      0.00   529.74     0  03:04           0        4.54       0.096
  WS02004411           JUNCTION      0.00   527.34     0  03:04           0        4.54       0.122
  WS02004412           JUNCTION      0.00   525.43     0  03:04           0        4.53       0.164
  WS02004413           JUNCTION      0.00   524.68     0  03:05           0        4.52       0.296
  WS02006109           JUNCTION      1.23   556.45     0  02:56      0.0354        4.66       0.206
  WS02006110           JUNCTION      0.00   557.99     0  02:56           0        4.65       0.140
  WS02006111           JUNCTION      0.00   562.33     0  02:38           0        4.64       0.015
  WS02006112           JUNCTION      0.00   542.93     0  02:38           0        4.64       0.437
  WS02006113           JUNCTION      0.00   565.60     0  02:56           0        4.64       0.038
  WS02006115           JUNCTION      0.00   542.68     0  02:57           0        4.62       0.140
  WS02006116           JUNCTION      0.00   537.20     0  03:02           0        4.62       0.094
  WS02006228           JUNCTION      0.00   552.47     0  02:56           0        4.63       0.072
  WS02006229           JUNCTION      0.00   550.35     0  02:56           0        4.63       0.109
  WS02006230           JUNCTION     10.28   584.08     0  02:45       0.296        4.64       0.088
  WS02006231           JUNCTION      0.00   573.71     0  02:15           0        4.34      -0.052
  WS02006232           JUNCTION      0.00   573.04     0  02:15           0        4.35       0.219
  WS02006234           JUNCTION      0.00   568.58     0  02:15           0        4.34      -0.219
  WS02006235           JUNCTION      0.00   562.04     0  02:15           0         4.4       0.218
  WS02006238           JUNCTION      0.00   428.80     0  03:35           0        3.82      -0.173
  WS02006239           JUNCTION      0.00   427.99     0  03:35           0        3.79      -0.092
  WS02006240           JUNCTION      0.00   425.97     0  03:35           0        3.76      -0.066
  WS02006242           JUNCTION      0.00   425.31     0  03:35           0        3.74      -0.003
  WS02006243           JUNCTION      0.00   424.40     0  03:35           0        3.73      -0.014
  WS02006245           JUNCTION      0.00   423.67     0  03:35           0        3.74       0.298
  WS02006247           JUNCTION      0.00   422.92     0  03:35           0        3.74       0.026
  WS02006248           JUNCTION      0.00   422.72     0  03:35           0        3.74       0.039
  WS02006249           JUNCTION      0.00   459.02     0  00:00           0        3.87       0.324
  WS02006251           JUNCTION      0.08   407.34     0  01:58     0.00222        3.86      -0.026
  WS02006252           JUNCTION      0.00   400.00     0  00:00           0        3.86      -0.040
  WS02006256           JUNCTION      0.00   300.00     0  00:00           0       0.845      -0.999
  WSF200               JUNCTION      0.00   524.29     0  03:05           0        4.51       0.010
  YS02001580           JUNCTION      0.00   169.66     0  01:48           0     0.00451      -1.624
  YS02001583           JUNCTION      0.00   271.93     0  01:48           0      0.0146     -12.532
  YS02001586           JUNCTION    401.73   401.74     0  01:54        1.09         1.1       0.162
  YS02001590           JUNCTION      0.00   318.01     0  02:03           0        1.03      -0.043
  YS02001593           JUNCTION      0.00   317.97     0  02:03           0        1.03       0.020
  YS02001596           JUNCTION      0.00   317.95     0  02:03           0        1.03       0.004
  YS02001600           JUNCTION      0.00   318.00     0  02:03           0        1.03      -0.007
  YS02001601           JUNCTION    762.52  1080.02     0  01:52        1.54        2.58       0.028
  YS02001602           JUNCTION      0.00   575.34     0  01:47           0        1.92       0.019
  YS02001605           JUNCTION      0.00   575.51     0  01:47           0        1.85       0.031
  YS02001607           JUNCTION      0.00   575.23     0  01:48           0        1.85       0.103
  YS02001610           JUNCTION      0.00   536.85     0  01:48           0        1.85       0.121
  YS02001613           JUNCTION      0.00   516.77     0  01:48           0         1.7       0.107
  YS02001616           JUNCTION      0.00   497.20     0  01:48           0         1.7       0.012
  YS02001619           JUNCTION    706.64   961.27     0  01:48        1.72        3.42      -0.002
  YS02001622           JUNCTION      0.00   938.46     0  01:48           0        3.42      -0.013
  YS02001625           JUNCTION      0.00   935.46     0  01:48           0        3.42       0.255
  YS02001629           JUNCTION      0.00   929.42     0  01:48           0        3.18      -0.007
  YS02001633           JUNCTION    565.14  1422.41     0  01:49        1.12         4.3       0.077
  YS02001641           JUNCTION      0.00  1419.05     0  01:49           0         4.3       0.064
  YS02001644           JUNCTION    507.85  1889.28     0  01:49       0.964        5.26       0.061
  YS02001647           JUNCTION      0.00  1888.57     0  01:49           0        5.25       0.007
  YS02001649           JUNCTION      0.00  2187.01     0  01:50           0        6.12       0.001
  YS02001652           JUNCTION      0.00   572.59     0  01:53           0       0.868      -0.187
  YS02001655           JUNCTION      0.15   685.03     0  01:51     0.00443       0.868       0.024
  YS02001658           JUNCTION      0.00   666.33     0  01:56           0       0.864      -0.016
  YS02001661           JUNCTION      0.00   496.07     0  01:52           0       0.864       0.042
  YS02001664           JUNCTION    491.88   491.88     0  01:51       0.864       0.864      -0.008
  YS02001745           JUNCTION    331.49   331.49     0  01:51       0.534       0.534       0.263
  YS02001748           JUNCTION      0.04   449.11     0  01:52      0.0013       0.535      -0.321
  YS02001751           JUNCTION      0.01   450.56     0  01:52    0.000317       0.539       0.127
  YS02001754           JUNCTION      0.26   393.64     0  01:54     0.00749       0.548      -0.231
  YS02001757           JUNCTION      0.00  3224.09     0  01:53           0        8.54       0.070
  YS02001759           JUNCTION    455.03  1115.21     0  01:51       0.735        1.88      -0.022
  YS02001762           JUNCTION      0.00   659.36     0  01:51           0        1.14       0.007
  YS02001765           JUNCTION      0.00   656.87     0  01:51           0        1.14      -0.000
  YS02001767           JUNCTION      0.54   654.55     0  01:51      0.0154        1.14       0.002
  YS02001770           JUNCTION    640.04   657.07     0  01:51        1.13        1.17      -0.013
  YS02001774           JUNCTION      0.00   410.01     0  01:50           0       0.062       1.565
  YS02001779           JUNCTION      0.01   412.47     0  01:50    0.000144      0.0199      -1.272
  YS02001783           JUNCTION      0.00  1152.40     0  01:51           0        3.24       0.004
  YS02001784           JUNCTION      1.06  1153.29     0  01:51      0.0305        3.27       0.015
  YS02001786           JUNCTION      0.06  1153.50     0  01:51     0.00162        3.28       0.021
  YS02001788           JUNCTION      0.07  1161.15     0  01:50     0.00204        3.28       0.009
  YS02001790           JUNCTION      0.15  1168.92     0  01:50     0.00446        3.28       0.026
  YS02001791           JUNCTION      0.00  1273.27     0  01:58           0        3.28      -0.021
  YS02001793           JUNCTION      0.00  1225.19     0  01:59           0        3.28       0.009
  YS02001882           JUNCTION      0.00    97.14     0  01:48           0      0.0127       3.294
  YS02001884           JUNCTION      0.00   134.62     0  01:48           0      0.0488       4.536
  YS02001887           JUNCTION    510.90   539.69     0  01:48        0.78       0.814       0.525
  YS02001890           JUNCTION      0.00   566.22     0  01:48           0       0.773       0.647
  YS02001895           JUNCTION      0.00   578.78     0  01:48           0       0.767       0.221
  YS02001898           JUNCTION      0.00   540.49     0  01:49           0       0.766      -0.015
  YS02001901           JUNCTION      0.00   552.25     0  01:49           0       0.769       0.408
  YS02001904           JUNCTION      0.00   556.73     0  01:49           0       0.774       0.346
  YS02001907           JUNCTION      0.00  1478.94     0  01:51           0        2.49       0.705
  YS02001910           JUNCTION      0.00   988.63     0  01:51           0        1.72       0.407
  YS02001915           JUNCTION    553.90   988.52     0  01:51        1.08        1.77       0.074
  YS02001918           JUNCTION      0.00   564.82     0  01:49           0       0.731      -0.001
  YS02001920           JUNCTION      2.87   474.57     0  01:50      0.0827       0.708       0.117
  YS02001923           JUNCTION      0.04   602.33     0  01:49     0.00109       0.609      -0.098
  YS02001926           JUNCTION      0.05   880.16     0  01:50      0.0015       0.587      -0.101
  YS02001929           JUNCTION    263.11   710.09     0  01:50       0.566       0.572      -0.031
  YS02006553           JUNCTION      0.00   789.87     0  02:03           0        2.16       0.539
  YS02006556           JUNCTION      0.00   790.56     0  02:04           0        2.17       0.362
  YS02006558           JUNCTION    655.01  1191.81     0  01:50        1.14        3.28       0.108
  YS02006561           JUNCTION      0.00  1190.13     0  01:50           0        3.24      -0.006
  YS02163301           JUNCTION      0.00   914.51     0  01:49           0        3.19       0.046
  YS02163601           JUNCTION      0.11  1421.83     0  01:49     0.00317         4.3       0.111
  YS02164001           JUNCTION      0.00  1421.01     0  01:49           0         4.3       0.051
  CC-1                 OUTFALL       0.00   683.00     0  00:00           0        3.02       0.000
  CC-2                 OUTFALL       0.00   683.00     0  00:00           0        1.66       0.000
  JK-1                 OUTFALL       0.00  1000.00     0  00:00           0       0.476       0.000
  JK-2                 OUTFALL       0.00  1000.00     0  00:00           0        1.92       0.000
  WSC                  OUTFALL       0.00   540.46     0  03:08           0        5.02       0.000
  CC-storage           STORAGE       0.00  3224.42     0  01:53           0        10.8      -0.102
  JK-storage           STORAGE       0.00  1221.92     0  01:56           0        3.43       0.189
  
  
  **********************
  Node Surcharge Summary
  **********************
  
  Surcharging occurs when water rises above the top of the highest conduit.
  ---------------------------------------------------------------------
                                               Max. Height   Min. Depth
                                   Hours       Above Crown    Below Rim
  Node                 Type      Surcharged         Meters       Meters
  ---------------------------------------------------------------------
  WS02006109           JUNCTION        1.90          0.281        1.539
  WS02006110           JUNCTION        0.35          0.181        1.669
  WS02006112           JUNCTION        0.27          0.048        1.632
  WS02006228           JUNCTION        1.89          0.273        1.927
  WS02006229           JUNCTION        1.90          0.332        2.118
  WS02006230           JUNCTION        0.35          0.197        1.373
  WS02006231           JUNCTION        0.44          0.292        1.238
  WS02006232           JUNCTION        1.91          0.471        1.009
  WS02006234           JUNCTION        0.74          0.499        0.741
  WS02006235           JUNCTION        1.87          0.612        0.678
  WS02006238           JUNCTION        1.90          0.643        0.787
  WS02006239           JUNCTION        1.88          0.623        0.667
  WS02006240           JUNCTION        1.89          0.618        0.772
  WS02006242           JUNCTION        1.90          0.658        0.162
  WS02006243           JUNCTION        1.88          0.553        0.217
  WS02006245           JUNCTION        1.88          0.502        0.348
  WS02006247           JUNCTION        1.88          0.488        0.272
  WS02006248           JUNCTION        1.87          0.380        0.000
  WS02006249           JUNCTION        1.87          0.390        0.000
  WS02006251           JUNCTION        0.48          0.361        0.819
  WS02006252           JUNCTION        2.07          1.100        0.000
  WS02006256           JUNCTION        5.35          2.050        0.000
  YS02001580           JUNCTION        0.37          0.450        0.000
  YS02001583           JUNCTION        0.38          0.500        0.000
  YS02001586           JUNCTION        0.53          0.510        0.000
  YS02001590           JUNCTION        0.59          0.750        0.000
  YS02001593           JUNCTION        0.59          0.731        0.109
  YS02001596           JUNCTION        0.69          0.974        0.096
  YS02001600           JUNCTION        0.82          1.190        0.000
  YS02001601           JUNCTION        1.19          1.440        0.000
  YS02001602           JUNCTION        1.06          1.270        0.000
  YS02001605           JUNCTION        1.00          1.180        0.000
  YS02001607           JUNCTION        0.55          0.646        0.034
  YS02001610           JUNCTION        0.57          0.680        0.000
  YS02001613           JUNCTION        0.54          0.675        0.025
  YS02001616           JUNCTION        0.50          0.610        0.000
  YS02001619           JUNCTION        0.49          0.610        0.000
  YS02001622           JUNCTION        0.48          0.620        0.000
  YS02001625           JUNCTION        0.65          0.780        0.000
  YS02001629           JUNCTION        0.42          0.470        0.000
  YS02001633           JUNCTION        0.66          1.041        0.019
  YS02001641           JUNCTION        0.59          0.981        0.119
  YS02001644           JUNCTION        0.56          0.920        0.000
  YS02001647           JUNCTION        0.35          0.746        0.154
  YS02001649           JUNCTION        0.45          1.012        0.038
  YS02001652           JUNCTION        0.28          1.130        0.000
  YS02001655           JUNCTION        0.10          1.200        0.000
  YS02001658           JUNCTION        0.01          0.711        0.589
  YS02001751           JUNCTION        0.01          1.200        0.000
  YS02001754           JUNCTION        0.13          1.018        0.132
  YS02001757           JUNCTION        0.50          0.790        0.420
  YS02001759           JUNCTION        0.39          1.025        0.185
  YS02001762           JUNCTION        0.36          1.090        0.060
  YS02001765           JUNCTION        0.32          1.100        0.000
  YS02001767           JUNCTION        0.30          1.030        0.000
  YS02001770           JUNCTION        0.28          0.902        0.018
  YS02001774           JUNCTION        0.35          0.944        0.106
  YS02001779           JUNCTION        0.15          0.680        0.000
  YS02001783           JUNCTION        0.40          0.598        1.002
  YS02001784           JUNCTION        0.37          0.466        1.024
  YS02001786           JUNCTION        0.28          0.185        1.245
  YS02001882           JUNCTION        0.35          0.830        0.000
  YS02001884           JUNCTION        0.36          0.870        0.000
  YS02001887           JUNCTION        0.38          0.898        0.052
  YS02001890           JUNCTION        0.40          0.760        0.000
  YS02001895           JUNCTION        0.34          0.638        0.112
  YS02001898           JUNCTION        0.33          0.565        0.175
  YS02001901           JUNCTION        0.37          0.703        0.167
  YS02001904           JUNCTION        0.36          0.661        0.189
  YS02001907           JUNCTION        0.57          0.950        0.000
  YS02001910           JUNCTION        0.42          1.008        0.092
  YS02001915           JUNCTION        0.34          0.961        0.039
  YS02001918           JUNCTION        0.26          0.810        0.000
  YS02001920           JUNCTION        0.28          1.104        0.036
  YS02001923           JUNCTION        0.01          0.820        0.000
  YS02001926           JUNCTION        0.01          0.900        0.000
  YS02001929           JUNCTION        0.01          0.780        0.000
  YS02006553           JUNCTION        0.58          1.032        0.158
  YS02006556           JUNCTION        0.49          1.045        0.305
  YS02006558           JUNCTION        0.48          1.040        0.360
  YS02006561           JUNCTION        0.23          0.298        0.852
  YS02163301           JUNCTION        0.65          0.946        0.084
  YS02163601           JUNCTION        0.69          1.080        0.000
  YS02164001           JUNCTION        0.60          1.001        0.099
  
  
  *********************
  Node Flooding Summary
  *********************
  
  Flooding refers to all water that overflows a node, whether it ponds or not.
  --------------------------------------------------------------------------
                                                             Total   Maximum
                                 Maximum   Time of Max       Flood    Ponded
                        Hours       Rate    Occurrence      Volume     Depth
  Node                 Flooded       LPS   days hr:min    10^6 ltr    Meters
  --------------------------------------------------------------------------
  WS02006248              0.01      2.43      0  02:56       0.000     0.000
  WS02006249              0.45    102.37      0  01:58       0.109     0.000
  WS02006252              0.01    245.63      0  00:00       0.000     0.000
  WS02006256              0.78    293.19      0  00:00       0.246     0.000
  YS02001580              0.01     86.96      0  01:48       0.001     0.000
  YS02001583              0.01    226.04      0  01:48       0.001     0.000
  YS02001586              0.26    142.89      0  01:48       0.052     0.000
  YS02001590              0.01      1.57      0  01:48       0.000     0.000
  YS02001600              0.01      4.12      0  01:48       0.000     0.000
  YS02001601              0.46    682.17      0  01:52       0.657     0.000
  YS02001602              0.34     61.95      0  01:59       0.068     0.000
  YS02001605              0.01      3.08      0  01:48       0.000     0.000
  YS02001610              0.29    222.43      0  01:55       0.150     0.000
  YS02001616              0.01     72.87      0  01:48       0.000     0.000
  YS02001619              0.01     63.54      0  01:48       0.000     0.000
  YS02001622              0.01    156.94      0  01:48       0.000     0.000
  YS02001625              0.23    562.71      0  01:53       0.225     0.000
  YS02001629              0.01    338.88      0  01:48       0.002     0.000
  YS02001644              0.01     18.58      0  01:51       0.000     0.000
  YS02001652              0.01     75.96      0  01:51       0.000     0.000
  YS02001655              0.01    344.81      0  01:51       0.000     0.000
  YS02001751              0.01    244.18      0  01:51       0.000     0.000
  YS02001765              0.01     73.22      0  01:50       0.000     0.000
  YS02001767              0.01     97.54      0  01:50       0.000     0.000
  YS02001779              0.01    379.68      0  01:50       0.003     0.000
  YS02001882              0.01     24.63      0  01:49       0.000     0.000
  YS02001884              0.01     20.99      0  01:49       0.000     0.000
  YS02001890              0.01     66.14      0  01:49       0.001     0.000
  YS02001907              0.21    980.34      0  01:51       0.323     0.000
  YS02001918              0.01    166.29      0  01:50       0.002     0.000
  YS02001923              0.01    258.64      0  01:50       0.001     0.000
  YS02001926              0.01    758.04      0  01:50       0.002     0.000
  YS02001929              0.01    360.41      0  01:50       0.002     0.000
  YS02163601              0.01      2.62      0  01:51       0.000     0.000
  
  
  **********************
  Storage Volume Summary
  **********************
  
  ------------------------------------------------------------------------------------------------
                         Average    Avg   Evap  Exfil     Maximum    Max    Time of Max    Maximum
                          Volume   Pcnt   Pcnt   Pcnt      Volume   Pcnt     Occurrence    Outflow
  Storage Unit           1000 m³   Full   Loss   Loss     1000 m³   Full    days hr:min        LPS
  ------------------------------------------------------------------------------------------------
  CC-storage               2.497   39.0    0.0    0.0       3.903   60.9       0  02:18    1783.53
  JK-storage               0.152   52.0    0.0    0.0       0.213   73.0       0  01:59    2300.00
  
  
  ***********************
  Outfall Loading Summary
  ***********************
  
  -----------------------------------------------------------
                         Flow       Avg       Max       Total
                         Freq      Flow      Flow      Volume
  Outfall Node           Pcnt       LPS       LPS    10^6 ltr
  -----------------------------------------------------------
  CC-1                  19.04    683.00    683.00       3.023
  CC-2                   9.66    683.00    683.00       1.665
  JK-1                   1.98   1000.00   1000.00       0.476
  JK-2                  10.04   1000.00   1000.00       1.917
  WSC                   99.96    238.22    540.46       5.023
  -----------------------------------------------------------
  System                28.14   3604.22   3366.23      12.103
  
  
  ********************
  Link Flow Summary
  ********************
  
  -----------------------------------------------------------------------------
                                 Maximum  Time of Max   Maximum    Max/    Max/
                                  |Flow|   Occurrence   |Veloc|    Full    Full
  Link                 Type          LPS  days hr:min     m/sec    Flow   Depth
  -----------------------------------------------------------------------------
  1                    CONDUIT    540.46     0  03:08      2.80    0.19    0.29
  WS02003060WS02003069 CONDUIT    541.00     0  03:06      1.63    0.21    0.33
  WS02003066WSF200     CONDUIT    524.29     0  03:05      2.83    0.09    0.22
  WS02003067WS02003066 CONDUIT    524.14     0  03:05      1.19    0.17    0.41
  WS02003069WS02003072 CONDUIT    540.53     0  03:06      1.36    0.26    0.38
  WS02003072WS02003073 CONDUIT    539.93     0  03:07      1.42    1.17    0.37
  WS02004401WS02004402 CONDUIT    533.49     0  03:03      1.23    0.64    0.86
  WS02004402WS02004403 CONDUIT    533.06     0  03:03      1.24    0.77    0.88
  WS02004403WS02004404 CONDUIT    532.13     0  03:03      1.17    0.38    0.92
  WS02004404WS02004405 CONDUIT    532.02     0  03:03      1.43    5.21    0.96
  WS02004405WS02004406 CONDUIT    532.48     0  03:03      1.39    1.05    0.95
  WS02004406WS02004407 CONDUIT    531.85     0  03:03      1.03    0.24    0.62
  WS02004407WS02004409 CONDUIT    531.64     0  03:03      1.55    0.19    0.48
  WS02004409WS02004410 CONDUIT    529.74     0  03:04      1.02    0.69    0.66
  WS02004410WS02004411 CONDUIT    527.34     0  03:04      0.96    0.72    0.68
  WS02004411WS02004412 CONDUIT    525.43     0  03:04      0.92    0.75    0.69
  WS02004412WS02004413 CONDUIT    524.68     0  03:05      0.88    0.35    0.77
  WS02004413WS02003067 CONDUIT    523.90     0  03:05      1.09    0.22    0.59
  WS02006109WS02006110 CONDUIT    557.99     0  02:56      1.11    1.07    1.00
  WS02006110WS02006113 CONDUIT    565.60     0  02:56      1.36    0.51    0.79
  WS02006111WS02006112 CONDUIT    542.93     0  02:38      1.96    0.26    0.67
  WS02006112WS02006115 CONDUIT    542.68     0  02:57      0.84    0.32    0.87
  WS02006113WS02006111 CONDUIT    562.33     0  02:38      2.47    0.67    0.46
  WS02006115WS02006116 CONDUIT    537.20     0  03:02      1.19    0.69    0.76
  WS02006116WS02004401 CONDUIT    534.61     0  03:02      1.22    0.74    0.84
  WS02006228WS02006109 CONDUIT    555.22     0  02:56      1.10    2.43    1.00
  WS02006229WS02006228 CONDUIT    552.47     0  02:56      1.14    1.83    1.00
  WS02006230WS02006229 CONDUIT    550.35     0  02:56      1.43   12.25    1.00
  WS02006231WS02006230 CONDUIT    573.80     0  02:45      1.57    8.70    1.00
  WS02006232WS02006231 CONDUIT    573.71     0  02:15      1.50    1.20    1.00
  WS02006234WS02006232 CONDUIT    573.04     0  02:15      1.49    1.16    1.00
  WS02006235WS02006234 CONDUIT    568.58     0  02:15      1.48    6.00    1.00
  WS02006238WS02006235 CONDUIT    429.20     0  03:35      1.45    0.96    1.00
  WS02006239WS02006238 CONDUIT    428.80     0  03:35      1.11    1.37    1.00
  WS02006240WS02006239 CONDUIT    427.99     0  03:35      1.24    1.35    1.00
  WS02006242WS02006240 CONDUIT    425.97     0  03:35      1.13    1.69    1.00
  WS02006243WS02006242 CONDUIT    425.31     0  03:35      1.40    0.91    1.00
  WS02006245WS02006243 CONDUIT    424.40     0  03:35      1.45    1.26    1.00
  WS02006247WS02006245 CONDUIT    423.67     0  03:35      1.43    3.36    1.00
  WS02006248WS02006247 CONDUIT    422.92     0  03:35      1.44    0.92    1.00
  WS02006249WS02006248 CONDUIT    422.72     0  03:35      1.36    2.32    1.00
  WS02006251WS02006249 CONDUIT    459.02     0  00:00      2.11    1.32    1.00
  WS02006252WS02006251 CONDUIT    407.27     0  01:58     25.30    1.49    1.00
  WS02006256WS02006235 CONDUIT    288.91     0  00:00      4.23    3.06    1.00
  WSF200WS02003060     CONDUIT    524.73     0  03:05      2.05    0.12    0.28
  YS02001580YS02001583 CONDUIT    169.66     0  01:48      0.90    0.66    1.00
  YS02001583YS02001586 CONDUIT    207.66     0  01:48      0.94    0.31    1.00
  YS02001586YS02001590 CONDUIT    318.01     0  02:03      1.28    0.56    1.00
  YS02001590YS02001593 CONDUIT    317.97     0  02:03      1.12    2.00    1.00
  YS02001593YS02001596 CONDUIT    317.95     0  02:03      1.72    0.50    1.00
  YS02001596YS02001600 CONDUIT    318.00     0  02:03      1.19    0.62    1.00
  YS02001600YS02001601 CONDUIT    317.89     0  02:03      1.12    0.55    1.00
  YS02001601YS02001602 CONDUIT    575.34     0  01:47      2.03    2.08    1.00
  YS02001602YS02001605 CONDUIT    575.51     0  01:47      2.04   12.18    1.00
  YS02001605YS02001607 CONDUIT    575.23     0  01:48      2.03    3.15    1.00
  YS02001607YS02001610 CONDUIT    536.85     0  01:48      0.71    0.51    1.00
  YS02001610YS02001613 CONDUIT    516.77     0  01:48      0.67    0.60    1.00
  YS02001613YS02001616 CONDUIT    497.20     0  01:48      0.66    0.43    1.00
  YS02001616YS02001619 CONDUIT    490.61     0  02:15      0.67    0.85    1.00
  YS02001619YS02001622 CONDUIT    938.46     0  01:48      1.27    1.38    1.00
  YS02001622YS02001625 CONDUIT    935.46     0  01:48      1.19    0.50    1.00
  YS02001625YS02001629 CONDUIT    929.42     0  01:48      1.19    0.44    1.00
  YS02001629YS02163301 CONDUIT    914.51     0  01:49      1.16    1.13    1.00
  YS02001633YS02163601 CONDUIT   1421.72     0  01:49      1.81    1.49    1.00
  YS02001641YS02001644 CONDUIT   1417.97     0  01:49      1.81    4.58    1.00
  YS02001644YS02001647 CONDUIT   1888.57     0  01:49      2.41    1.11    1.00
  YS02001647YS02001649 CONDUIT   1864.46     0  01:49      2.41    0.98    1.00
  YS02001649YS02001757 CONDUIT   2190.12     0  01:50      2.79    1.33    1.00
  YS02001652YS02001649 CONDUIT    572.30     0  01:53      0.84    0.28    1.00
  YS02001655YS02001652 CONDUIT    572.59     0  01:53      1.48    0.28    1.00
  YS02001658YS02001655 CONDUIT    684.87     0  01:51      2.05    0.29    1.00
  YS02001661YS02001658 CONDUIT    666.33     0  01:56      2.38    0.26    0.81
  YS02001664YS02001661 CONDUIT    496.07     0  01:52      2.28    0.16    0.49
  YS02001745YS02001748 CONDUIT    449.06     0  01:52      2.27    0.17    0.57
  YS02001748YS02001751 CONDUIT    450.55     0  01:52      1.88    0.23    0.93
  YS02001751YS02001754 CONDUIT    393.38     0  01:54      1.58    0.19    1.00
  YS02001754YS02001757 CONDUIT    395.79     0  01:55      0.56    0.16    1.00
  YS02001757CaochengTiaoxuchi CONDUIT   3224.42     0  01:53      4.25    1.40    1.00
  YS02001759YS02001757 CONDUIT   1116.04     0  01:51      1.42    0.79    1.00
  YS02001762YS02001759 CONDUIT    661.49     0  01:51      0.84    0.76    1.00
  YS02001765YS02001762 CONDUIT    659.36     0  01:51      0.84    0.62    1.00
  YS02001767YS02001765 CONDUIT    656.87     0  01:51      0.84    0.83    1.00
  YS02001770YS02001767 CONDUIT    654.02     0  01:51      0.87    2.59    1.00
  YS02001774YS02001770 CONDUIT    410.01     0  01:50      0.52    0.26    1.00
  YS02001779YS02001774 CONDUIT    412.46     0  01:50      0.53    0.21    1.00
  YS02001783YS02001784 CONDUIT   1152.23     0  01:51      2.29    1.59    1.00
  YS02001784YS02001785 CONDUIT   1153.44     0  01:51      2.29    2.68    1.00
  YS02001786YS02001788 CONDUIT   1161.08     0  01:50      2.50    2.24    0.89
  YS02001788YS02001790 CONDUIT   1168.76     0  01:50      2.71    0.86    0.83
  YS02001790YS02001791 CONDUIT   1273.27     0  01:58      3.42    1.39    0.70
  YS02001791YS02001793 CONDUIT   1225.19     0  01:59      6.74    0.53    0.44
  YS02001793JiankangQianchi CONDUIT   1221.92     0  01:56      2.46    0.10    0.65
  YS02001882YS02001884 CONDUIT     97.14     0  01:48      0.12    0.11    1.00
  YS02001884YS02001887 CONDUIT    134.62     0  01:48      0.17    0.18    1.00
  YS02001887YS02001890 CONDUIT    566.22     0  01:48      0.72    0.97    1.00
  YS02001890YS02001895 CONDUIT    578.78     0  01:48      0.74    0.27    1.00
  YS02001895YS02001898 CONDUIT    540.49     0  01:49      0.69    0.94    1.00
  YS02001898YS02001901 CONDUIT    552.25     0  01:49      0.70    0.36    1.00
  YS02001901YS02001904 CONDUIT    556.73     0  01:49      0.71    0.86    1.00
  YS02001904YS02001907 CONDUIT    562.46     0  01:49      0.72    0.20    1.00
  YS02001907YS02006553 CONDUIT    789.87     0  02:03      0.88    0.93    1.00
  YS02001910YS02001907 CONDUIT    988.61     0  01:51      1.26    0.56    1.00
  YS02001915YS02001910 CONDUIT    988.63     0  01:51      1.26    0.49    1.00
  YS02001918YS02001915 CONDUIT    564.82     0  01:49      0.76    0.31    1.00
  YS02001920YS02001918 CONDUIT    471.70     0  01:50      0.64    0.46    1.00
  YS02001923YS02001920 CONDUIT    473.70     0  01:50      0.75    0.21    1.00
  YS02001926YS02001923 CONDUIT    667.19     0  01:50      1.11    0.95    1.00
  YS02001929YS02001926 CONDUIT    486.91     0  01:50      1.17    0.23    1.00
  YS02006553YS02006556 CONDUIT    790.56     0  02:04      1.01    0.68    1.00
  YS02006556YS02006558 CONDUIT    792.74     0  02:04      1.01    0.63    1.00
  YS02006558YS02006561 CONDUIT   1190.13     0  01:50      4.21    2.63    1.00
  YS02006561YS02001783 CONDUIT   1152.40     0  01:51      2.29    0.60    1.00
  YS02163301YS02001633 CONDUIT    913.66     0  01:49      1.16    0.86    1.00
  YS02163601YS02164001 CONDUIT   1421.01     0  01:49      1.81    1.26    1.00
  YS02164001YS02001641 CONDUIT   1419.05     0  01:49      1.81    1.94    1.00
  CC-R1                PUMP       683.00     0  00:00              1.00
  CC-R2                PUMP       683.00     0  00:00              1.00
  CC-S1                PUMP       200.00     0  00:00              1.00
  CC-S2                PUMP       200.00     0  00:00              1.00
  JK-R1                PUMP      1000.00     0  00:00              1.00
  JK-R2                PUMP      1000.00     0  00:00              1.00
  JK-S                 PUMP       300.00     0  00:00              1.00
  
  
  ***************************
  Flow Classification Summary
  ***************************
  
  -------------------------------------------------------------------------------------
                      Adjusted    ---------- Fraction of Time in Flow Class ---------- 
                       /Actual         Up    Down  Sub   Sup   Up    Down  Norm  Inlet 
  Conduit               Length    Dry  Dry   Dry   Crit  Crit  Crit  Crit  Ltd   Ctrl  
  -------------------------------------------------------------------------------------
  1                       1.00   0.00  0.00  0.00  0.00  1.00  0.00  0.00  0.44  0.00
  WS02003060WS02003069    1.00   0.00  0.00  0.00  0.98  0.02  0.00  0.00  0.71  0.00
  WS02003066WSF200        1.00   0.06  0.00  0.00  0.00  0.94  0.00  0.00  0.88  0.00
  WS02003067WS02003066    1.00   0.05  0.01  0.00  0.94  0.00  0.00  0.00  0.00  0.00
  WS02003069WS02003072    1.00   0.00  0.00  0.00  0.99  0.01  0.00  0.00  0.75  0.00
  WS02003072WS02003073    1.00   0.00  0.00  0.00  0.00  0.00  0.00  1.00  0.00  0.00
  WS02004401WS02004402    1.00   0.02  0.00  0.00  0.98  0.00  0.00  0.00  0.00  0.00
  WS02004402WS02004403    1.00   0.02  0.00  0.00  0.98  0.00  0.00  0.00  0.00  0.00
  WS02004403WS02004404    1.00   0.00  0.03  0.00  0.97  0.00  0.00  0.00  0.00  0.00
  WS02004404WS02004405    1.00   0.00  0.00  0.00  1.00  0.00  0.00  0.00  0.01  0.00
  WS02004405WS02004406    1.00   0.00  0.00  0.00  1.00  0.00  0.00  0.00  0.00  0.00
  WS02004406WS02004407    1.00   0.00  0.03  0.00  0.96  0.00  0.00  0.00  0.00  0.00
  WS02004407WS02004409    1.00   0.04  0.00  0.00  0.96  0.01  0.00  0.00  0.96  0.00
  WS02004409WS02004410    1.00   0.04  0.00  0.00  0.96  0.00  0.00  0.00  0.00  0.00
  WS02004410WS02004411    1.00   0.04  0.00  0.00  0.96  0.00  0.00  0.00  0.00  0.00
  WS02004411WS02004412    1.00   0.04  0.00  0.00  0.96  0.00  0.00  0.00  0.00  0.00
  WS02004412WS02004413    1.00   0.04  0.00  0.00  0.96  0.00  0.00  0.00  0.00  0.00
  WS02004413WS02003067    1.00   0.04  0.01  0.00  0.00  0.00  0.95  0.00  0.00  0.00
  WS02006109WS02006110    1.00   0.00  0.01  0.00  0.98  0.00  0.01  0.00  0.00  0.00
  WS02006110WS02006113    1.00   0.01  0.01  0.00  0.98  0.00  0.00  0.00  0.00  0.00
  WS02006111WS02006112    1.00   0.02  0.00  0.00  0.98  0.00  0.00  0.00  0.98  0.00
  WS02006112WS02006115    1.00   0.02  0.00  0.00  0.97  0.00  0.00  0.00  0.00  0.00
  WS02006113WS02006111    1.00   0.02  0.00  0.00  0.00  0.98  0.00  0.00  0.13  0.00
  WS02006115WS02006116    1.00   0.02  0.00  0.00  0.97  0.00  0.00  0.01  0.00  0.00
  WS02006116WS02004401    1.00   0.02  0.00  0.00  0.98  0.00  0.00  0.00  0.00  0.00
  WS02006228WS02006109    1.00   0.00  0.00  0.00  1.00  0.00  0.00  0.00  0.00  0.00
  WS02006229WS02006228    1.00   0.00  0.00  0.00  0.99  0.00  0.00  0.01  0.00  0.00
  WS02006230WS02006229    1.00   0.00  0.00  0.00  0.99  0.00  0.00  0.01  0.01  0.00
  WS02006231WS02006230    1.00   0.00  0.00  0.00  0.25  0.00  0.75  0.00  0.00  0.00
  WS02006232WS02006231    1.00   0.00  0.00  0.00  0.99  0.00  0.01  0.00  0.00  0.00
  WS02006234WS02006232    1.00   0.00  0.00  0.00  1.00  0.00  0.00  0.00  0.14  0.00
  WS02006235WS02006234    1.00   0.00  0.00  0.00  0.77  0.00  0.23  0.00  0.00  0.00
  WS02006238WS02006235    1.00   0.00  0.00  0.00  1.00  0.00  0.00  0.00  0.00  0.00
  WS02006239WS02006238    1.00   0.00  0.00  0.00  1.00  0.00  0.00  0.00  0.33  0.00
  WS02006240WS02006239    1.00   0.00  0.00  0.00  0.59  0.00  0.00  0.41  0.03  0.00
  WS02006242WS02006240    1.00   0.00  0.00  0.00  0.99  0.00  0.01  0.00  0.00  0.00
  WS02006243WS02006242    1.00   0.00  0.00  0.00  0.99  0.00  0.00  0.01  0.54  0.00
  WS02006245WS02006243    1.00   0.00  0.00  0.00  0.64  0.00  0.00  0.36  0.01  0.00
  WS02006247WS02006245    1.00   0.00  0.00  0.00  0.98  0.00  0.00  0.02  0.00  0.00
  WS02006248WS02006247    1.00   0.00  0.00  0.00  0.99  0.00  0.00  0.01  0.22  0.00
  WS02006249WS02006248    1.00   0.00  0.00  0.00  0.46  0.00  0.54  0.00  0.00  0.00
  WS02006251WS02006249    1.00   0.00  0.00  0.00  1.00  0.00  0.00  0.00  0.56  0.00
  WS02006252WS02006251    1.00   0.00  0.59  0.00  0.06  0.00  0.35  0.00  0.00  0.00
  WS02006256WS02006235    1.00   0.00  0.00  0.00  0.99  0.01  0.00  0.00  0.00  0.00
  WSF200WS02003060        1.00   0.00  0.06  0.00  0.40  0.54  0.00  0.00  0.56  0.00
  YS02001580YS02001583    1.00   0.22  0.61  0.00  0.17  0.00  0.00  0.00  0.70  0.00
  YS02001583YS02001586    1.00   0.44  0.34  0.00  0.22  0.00  0.00  0.00  0.71  0.00
  YS02001586YS02001590    1.00   0.13  0.00  0.00  0.39  0.04  0.00  0.44  0.35  0.00
  YS02001590YS02001593    1.00   0.13  0.01  0.00  0.09  0.00  0.78  0.00  0.00  0.00
  YS02001593YS02001596    1.00   0.14  0.00  0.00  0.10  0.01  0.00  0.75  0.02  0.00
  YS02001596YS02001600    1.00   0.14  0.00  0.00  0.18  0.01  0.00  0.67  0.06  0.00
  YS02001600YS02001601    1.00   0.13  0.01  0.00  0.86  0.00  0.00  0.00  0.63  0.00
  YS02001601YS02001602    1.00   0.13  0.01  0.00  0.86  0.00  0.00  0.00  0.00  0.00
  YS02001602YS02001605    1.00   0.14  0.00  0.00  0.86  0.00  0.00  0.00  0.00  0.00
  YS02001605YS02001607    1.00   0.14  0.00  0.00  0.86  0.00  0.00  0.00  0.00  0.00
  YS02001607YS02001610    1.00   0.13  0.01  0.00  0.86  0.00  0.00  0.00  0.02  0.00
  YS02001610YS02001613    1.00   0.13  0.00  0.00  0.87  0.00  0.00  0.00  0.01  0.00
  YS02001613YS02001616    1.00   0.13  0.00  0.00  0.87  0.00  0.00  0.00  0.01  0.00
  YS02001616YS02001619    1.00   0.13  0.00  0.00  0.87  0.00  0.00  0.00  0.00  0.00
  YS02001619YS02001622    1.00   0.13  0.00  0.00  0.87  0.00  0.00  0.00  0.30  0.00
  YS02001622YS02001625    1.00   0.13  0.00  0.00  0.87  0.00  0.00  0.00  0.05  0.00
  YS02001625YS02001629    1.00   0.13  0.06  0.00  0.13  0.00  0.69  0.00  0.00  0.00
  YS02001629YS02163301    1.00   0.16  0.01  0.00  0.83  0.00  0.00  0.00  0.00  0.00
  YS02001633YS02163601    1.00   0.00  0.01  0.00  0.99  0.00  0.00  0.00  0.15  0.00
  YS02001641YS02001644    1.00   0.00  0.01  0.00  0.99  0.00  0.00  0.00  0.00  0.00
  YS02001644YS02001647    1.00   0.00  0.18  0.00  0.82  0.00  0.00  0.00  0.00  0.00
  YS02001647YS02001649    1.00   0.00  0.18  0.00  0.52  0.30  0.00  0.00  0.57  0.00
  YS02001649YS02001757    1.00   0.00  0.00  0.00  0.89  0.11  0.00  0.00  0.44  0.00
  YS02001652YS02001649    1.00   0.00  0.00  0.00  0.96  0.04  0.00  0.00  0.75  0.00
  YS02001655YS02001652    1.00   0.00  0.00  0.00  0.15  0.03  0.00  0.82  0.08  0.00
  YS02001658YS02001655    1.00   0.00  0.14  0.00  0.62  0.23  0.00  0.00  0.72  0.00
  YS02001661YS02001658    1.00   0.14  0.00  0.00  0.46  0.39  0.00  0.00  0.75  0.00
  YS02001664YS02001661    1.00   0.13  0.00  0.00  0.76  0.12  0.00  0.00  0.86  0.00
  YS02001745YS02001748    1.00   0.00  0.00  0.00  0.05  0.01  0.00  0.94  0.05  0.00
  YS02001748YS02001751    1.00   0.00  0.00  0.00  0.80  0.20  0.00  0.00  0.81  0.00
  YS02001751YS02001754    1.00   0.00  0.00  0.00  0.11  0.01  0.00  0.88  0.03  0.00
  YS02001754YS02001757    1.00   0.00  0.00  0.00  1.00  0.00  0.00  0.00  0.84  0.00
  YS02001757CaochengTiaoxuchi    1.00   0.00  0.00  0.00  0.97  0.03  0.00  0.00  0.54  0.00
  YS02001759YS02001757    1.00   0.00  0.00  0.00  1.00  0.00  0.00  0.00  0.53  0.00
  YS02001762YS02001759    1.00   0.00  0.00  0.00  1.00  0.00  0.00  0.00  0.07  0.00
  YS02001765YS02001762    1.00   0.00  0.00  0.00  1.00  0.00  0.00  0.00  0.69  0.00
  YS02001767YS02001765    1.00   0.00  0.00  0.00  1.00  0.00  0.00  0.00  0.01  0.00
  YS02001770YS02001767    1.00   0.00  0.00  0.00  1.00  0.00  0.00  0.00  0.00  0.00
  YS02001774YS02001770    1.00   0.00  0.13  0.00  0.69  0.00  0.18  0.00  0.04  0.00
  YS02001779YS02001774    1.00   0.00  0.00  0.00  1.00  0.00  0.00  0.00  0.80  0.00
  YS02001783YS02001784    1.00   0.00  0.19  0.00  0.81  0.00  0.00  0.00  0.57  0.00
  YS02001784YS02001785    1.00   0.00  0.00  0.00  1.00  0.00  0.00  0.00  0.18  0.00
  YS02001786YS02001788    1.00   0.00  0.00  0.00  0.79  0.21  0.00  0.00  0.00  0.00
  YS02001788YS02001790    1.00   0.00  0.00  0.00  0.21  0.79  0.00  0.00  0.84  0.00
  YS02001790YS02001791    1.00   0.00  0.00  0.00  0.01  0.99  0.00  0.00  0.16  0.00
  YS02001791YS02001793    1.00   0.00  0.00  0.00  0.00  1.00  0.00  0.00  0.00  0.00
  YS02001793JiankangQianchi    1.00   0.00  0.00  0.00  0.98  0.02  0.00  0.00  0.98  0.00
  YS02001882YS02001884    1.00   0.16  0.01  0.00  0.83  0.00  0.00  0.00  0.00  0.00
  YS02001884YS02001887    1.00   0.06  0.05  0.00  0.89  0.00  0.00  0.00  0.00  0.00
  YS02001887YS02001890    1.00   0.00  0.00  0.00  0.97  0.00  0.03  0.00  0.00  0.00
  YS02001890YS02001895    1.00   0.00  0.17  0.00  0.83  0.00  0.00  0.00  0.00  0.00
  YS02001895YS02001898    1.00   0.17  0.00  0.00  0.81  0.00  0.02  0.00  0.00  0.00
  YS02001898YS02001901    1.00   0.17  0.00  0.00  0.82  0.00  0.00  0.00  0.01  0.00
  YS02001901YS02001904    1.00   0.17  0.00  0.00  0.83  0.00  0.00  0.00  0.00  0.00
  YS02001904YS02001907    1.00   0.00  0.17  0.00  0.83  0.00  0.00  0.00  0.00  0.00
  YS02001907YS02006553    1.00   0.00  0.02  0.00  0.98  0.00  0.00  0.00  0.00  0.00
  YS02001910YS02001907    1.00   0.00  0.00  0.00  0.97  0.00  0.00  0.03  0.12  0.00
  YS02001915YS02001910    1.00   0.00  0.00  0.00  0.96  0.04  0.00  0.00  0.17  0.00
  YS02001918YS02001915    1.00   0.00  0.01  0.00  0.98  0.02  0.00  0.00  0.77  0.00
  YS02001920YS02001918    1.00   0.00  0.01  0.00  0.99  0.00  0.00  0.00  0.00  0.00
  YS02001923YS02001920    1.00   0.00  0.00  0.00  1.00  0.00  0.00  0.00  0.94  0.00
  YS02001926YS02001923    1.00   0.00  0.07  0.00  0.04  0.00  0.88  0.00  0.00  0.00
  YS02001929YS02001926    1.00   0.00  0.13  0.00  0.87  0.00  0.00  0.00  0.84  0.00
  YS02006553YS02006556    1.00   0.01  0.00  0.00  0.99  0.00  0.00  0.00  0.03  0.00
  YS02006556YS02006558    1.00   0.00  0.00  0.00  1.00  0.00  0.00  0.00  0.00  0.00
  YS02006558YS02006561    1.00   0.19  0.00  0.00  0.04  0.77  0.00  0.00  0.20  0.00
  YS02006561YS02001783    1.00   0.19  0.00  0.00  0.07  0.75  0.00  0.00  0.71  0.00
  YS02163301YS02001633    1.00   0.00  0.16  0.00  0.84  0.00  0.00  0.00  0.00  0.00
  YS02163601YS02164001    1.00   0.00  0.08  0.00  0.92  0.00  0.00  0.00  0.00  0.00
  YS02164001YS02001641    1.00   0.01  0.07  0.00  0.92  0.00  0.00  0.00  0.06  0.00
  
  
  *************************
  Conduit Surcharge Summary
  *************************
  
  ----------------------------------------------------------------------------
                                                           Hours        Hours 
                         --------- Hours Full --------   Above Full   Capacity
  Conduit                Both Ends  Upstream  Dnstream   Normal Flow   Limited
  ----------------------------------------------------------------------------
  WS02003072WS02003073        0.01      0.01      0.01      0.68         0.01
  WS02004404WS02004405        0.01      0.01      0.01      3.22         0.01
  WS02004405WS02004406        0.01      0.01      0.01      0.18         0.01
  WS02006109WS02006110        0.35      0.35      1.92      0.42         0.01
  WS02006110WS02006113        0.01      0.01      1.91      0.01         0.01
  WS02006111WS02006112        0.01      0.01      2.08      0.01         0.01
  WS02006112WS02006115        0.01      0.01      0.27      0.01         0.01
  WS02006228WS02006109        1.89      1.91      1.89      2.46         1.89
  WS02006229WS02006228        1.89      1.90      1.89      2.12         1.88
  WS02006230WS02006229        1.94      2.03      1.94      3.89         1.94
  WS02006231WS02006230        0.35      0.35      0.47      3.55         0.01
  WS02006232WS02006231        0.43      0.43      1.91      0.48         0.01
  WS02006234WS02006232        1.86      1.86      1.91      0.47         0.47
  WS02006235WS02006234        0.73      0.73      1.87      3.44         0.01
  WS02006238WS02006235        1.88      1.88      1.91      0.01         0.01
  WS02006239WS02006238        1.90      1.90      1.90      1.97         1.81
  WS02006240WS02006239        1.88      1.89      1.88      1.97         1.76
  WS02006242WS02006240        1.89      1.89      1.93      2.06         0.01
  WS02006243WS02006242        1.88      1.88      1.90      0.01         0.03
  WS02006245WS02006243        1.88      1.88      1.88      1.58         1.51
  WS02006247WS02006245        1.88      1.88      1.88      3.23         1.87
  WS02006248WS02006247        1.87      1.87      1.88      0.01         0.03
  WS02006249WS02006248        1.87      1.87      1.87      3.19         0.01
  WS02006251WS02006249        1.87      1.87      1.87      2.02         1.81
  WS02006252WS02006251        2.06      2.06      2.06      2.06         0.01
  WS02006256WS02006235        3.46      3.49      5.32      0.78         0.01
  YS02001580YS02001583        0.37      0.37      0.43      0.01         0.01
  YS02001583YS02001586        0.38      0.38      0.53      0.01         0.01
  YS02001586YS02001590        0.53      0.53      0.59      0.01         0.01
  YS02001590YS02001593        0.59      0.59      0.61      0.64         0.01
  YS02001593YS02001596        0.60      0.60      0.69      0.01         0.01
  YS02001596YS02001600        0.72      0.72      0.82      0.01         0.01
  YS02001600YS02001601        0.87      0.87      1.19      0.01         0.01
  YS02001601YS02001602        1.06      1.06      1.25      0.83         0.01
  YS02001602YS02001605        1.00      1.00      1.06      2.01         0.01
  YS02001605YS02001607        0.95      1.00      0.95      1.14         0.95
  YS02001607YS02001610        0.55      0.55      0.57      0.01         0.01
  YS02001610YS02001613        0.54      0.54      0.57      0.01         0.01
  YS02001613YS02001616        0.50      0.50      0.54      0.01         0.01
  YS02001616YS02001619        0.49      0.49      0.50      0.01         0.01
  YS02001619YS02001622        0.48      0.49      0.48      0.63         0.46
  YS02001622YS02001625        0.48      0.48      0.65      0.01         0.01
  YS02001625YS02001629        0.42      0.42      0.65      0.01         0.01
  YS02001629YS02163301        0.64      0.64      0.65      0.23         0.22
  YS02001633YS02163601        0.66      0.66      0.69      0.45         0.45
  YS02001641YS02001644        0.56      0.59      0.56      1.31         0.56
  YS02001644YS02001647        0.35      0.35      0.56      0.04         0.01
  YS02001647YS02001649        0.35      0.35      0.45      0.01         0.01
  YS02001649YS02001757        0.45      0.45      0.50      0.30         0.26
  YS02001652YS02001649        0.30      0.30      0.45      0.01         0.01
  YS02001655YS02001652        0.10      0.10      0.27      0.01         0.01
  YS02001658YS02001655        0.01      0.01      0.10      0.01         0.01
  YS02001661YS02001658        0.01      0.01      0.01      0.01         0.01
  YS02001748YS02001751        0.01      0.01      0.01      0.01         0.01
  YS02001751YS02001754        0.01      0.01      0.13      0.01         0.01
  YS02001754YS02001757        0.18      0.18      0.50      0.01         0.01
  YS02001757CaochengTiaoxuchi        0.40      0.50      1.85      0.28         0.15
  YS02001759YS02001757        0.39      0.39      0.50      0.01         0.01
  YS02001762YS02001759        0.36      0.36      0.39      0.01         0.01
  YS02001765YS02001762        0.32      0.32      0.36      0.01         0.01
  YS02001767YS02001765        0.30      0.30      0.32      0.01         0.01
  YS02001770YS02001767        0.30      0.30      0.30      0.40         0.24
  YS02001774YS02001770        0.28      0.28      0.35      0.01         0.01
  YS02001779YS02001774        0.15      0.15      0.35      0.01         0.01
  YS02001783YS02001784        0.37      0.40      0.37      0.51         0.37
  YS02001784YS02001785        0.28      0.37      0.28      0.71         0.28
  YS02001786YS02001788        0.01      0.28      0.01      0.59         0.01
  YS02001790YS02001791        0.01      0.01      0.01      0.36         0.01
  YS02001793JiankangQianchi        0.01      0.01      7.31      0.01         0.01
  YS02001882YS02001884        0.35      0.35      0.36      0.01         0.01
  YS02001884YS02001887        0.37      0.37      0.38      0.01         0.01
  YS02001887YS02001890        0.40      0.40      0.41      0.01         0.01
  YS02001890YS02001895        0.34      0.34      0.42      0.01         0.01
  YS02001895YS02001898        0.33      0.33      0.34      0.01         0.01
  YS02001898YS02001901        0.34      0.34      0.37      0.01         0.01
  YS02001901YS02001904        0.36      0.36      0.37      0.01         0.01
  YS02001904YS02001907        0.36      0.36      0.58      0.01         0.01
  YS02001907YS02006553        0.71      0.71      0.78      0.01         0.01
  YS02001910YS02001907        0.42      0.42      0.57      0.01         0.01
  YS02001915YS02001910        0.34      0.34      0.42      0.01         0.01
  YS02001918YS02001915        0.26      0.26      0.34      0.01         0.01
  YS02001920YS02001918        0.26      0.26      0.28      0.01         0.01
  YS02001923YS02001920        0.22      0.22      0.28      0.01         0.01
  YS02001926YS02001923        0.01      0.01      0.01      0.01         0.01
  YS02001929YS02001926        0.01      0.01      0.01      0.01         0.01
  YS02006553YS02006556        0.49      0.49      0.58      0.01         0.01
  YS02006556YS02006558        0.53      0.53      0.59      0.01         0.01
  YS02006558YS02006561        0.30      0.48      0.30      0.67         0.30
  YS02006561YS02001783        0.23      0.23      0.40      0.01         0.01
  YS02163301YS02001633        0.65      0.65      0.68      0.01         0.01
  YS02163601YS02164001        0.60      0.60      0.69      0.12         0.01
  YS02164001YS02001641        0.59      0.60      0.59      0.72         0.59
  
  
  ***************
  Pumping Summary
  ***************
  
  ---------------------------------------------------------------------------------------------------------
                                                  Min       Avg       Max     Total     Power    % Time Off
                        Percent   Number of      Flow      Flow      Flow    Volume     Usage    Pump Curve
  Pump                 Utilized   Start-Ups       LPS       LPS       LPS  10^6 ltr     Kw-hr    Low   High
  ---------------------------------------------------------------------------------------------------------
  CC-R1                   15.36           4      0.00    683.00    683.00     3.022     54.71    0.0   25.4
  CC-R2                    8.47           8      0.00    683.00    683.00     1.665     30.17    0.0   25.5
  CC-S1                   41.28           6      0.00    200.00    200.00     2.378     14.26    0.0    0.0
  CC-S2                   25.76           3      0.00    200.00    200.00     1.484      8.82    0.0    0.0
  JK-R1                    1.65           5      0.00   1000.00   1000.00     0.475      5.00    0.0    0.0
  JK-R2                    6.65          10      0.00   1000.00   1000.00     1.914     17.32    0.0    0.0
  JK-S                     9.76          14      0.00    300.00    300.00     0.843     13.42    0.0    0.0
  

  Analysis begun on:  Tue Apr 15 14:52:16 2025
  Analysis ended on:  Tue Apr 15 14:52:18 2025
  Total elapsed time: 00:00:02