
  EPA STORM WATER MANAGEMENT MODEL - VERSION 5.2 (Build 5.2.4)
  PYSWMM TOOLKIT API - VERSION v1.0 (2023-11-27)
  ------------------------------------------------------------

  WARNING 04: minimum elevation drop used for Conduit WS02004404WS02004405
  WARNING 03: negative offset ignored for Link YS02001904YS02001907
  
  ****************
  Analysis Options
  ****************
  Flow Units ............... LPS
  Process Models:
    Rainfall/Runoff ........ YES
    RDII ................... NO
    Snowmelt ............... NO
    Groundwater ............ NO
    Flow Routing ........... YES
    Ponding Allowed ........ NO
    Water Quality .......... NO
  Infiltration Method ...... HORTON
  Flow Routing Method ...... DYNWAVE
  Surcharge Method ......... EXTRAN
  Starting Date ............ 08/28/2015 08:00:00
  Ending Date .............. 08/28/2015 16:00:00
  Antecedent Dry Days ...... 8.0
  Report Time Step ......... 00:01:00
  Wet Time Step ............ 00:01:00
  Dry Time Step ............ 00:01:00
  Routing Time Step ........ 30.00 sec
  Variable Time Step ....... YES
  Maximum Trials ........... 8
  Number of Threads ........ 4
  Head Tolerance ........... 0.001500 m
  
  
  **************************        Volume         Depth
  Runoff Quantity Continuity     hectare-m            mm
  **************************     ---------       -------
  Total Precipitation ......         2.508        75.611
  Evaporation Loss .........         0.000         0.000
  Infiltration Loss ........         0.104         3.143
  Surface Runoff ...........         2.371        71.486
  Final Storage ............         0.033         0.997
  Continuity Error (%) .....        -0.019
  
  
  **************************        Volume        Volume
  Flow Routing Continuity        hectare-m      10^6 ltr
  **************************     ---------     ---------
  Dry Weather Inflow .......         0.025         0.251
  Wet Weather Inflow .......         2.371        23.714
  Groundwater Inflow .......         0.000         0.000
  RDII Inflow ..............         0.000         0.000
  External Inflow ..........         0.083         0.834
  External Outflow .........         1.657        16.570
  Flooding Loss ............         0.791         7.909
  Evaporation Loss .........         0.000         0.000
  Exfiltration Loss ........         0.000         0.000
  Initial Stored Volume ....         0.243         2.431
  Final Stored Volume ......         0.278         2.783
  Continuity Error (%) .....        -0.119
  
  
  *************************
  Highest Continuity Errors
  *************************
  Node YS02001884 (4.65%)
  Node YS02001583 (-3.19%)
  
  
  ***************************
  Time-Step Critical Elements
  ***************************
  Link WS02006252WS02006251 (49.23%)
  Link WS02006238WS02006235 (11.58%)
  Link WS02004404WS02004405 (10.01%)
  Link WS02006235WS02006234 (8.62%)
  Link YS02001791YS02001793 (7.55%)
  
  
  ********************************
  Highest Flow Instability Indexes
  ********************************
  Link WS02006113WS02006111 (45)
  Link WS02006111WS02006112 (28)
  Link WS02006238WS02006235 (16)
  Link WS02006256WS02006235 (15)
  Link WS02006252WS02006251 (12)
  
  
  *********************************
  Most Frequent Nonconverging Nodes
  *********************************
  Node CC-1 (10.87%)
  Node CC-2 (10.87%)
  Node JK-1 (10.87%)
  Node JK-2 (10.87%)
  Node WSC (10.87%)
  
  
  *************************
  Routing Time Step Summary
  *************************
  Minimum Time Step           :     0.01 sec
  Average Time Step           :     1.96 sec
  Maximum Time Step           :     7.04 sec
  % of Time in Steady State   :     0.00
  Average Iterations per Step :     3.03
  % of Steps Not Converging   :    10.87
  Time Step Frequencies       :
     30.000 - 13.228 sec      :     0.00 %
     13.228 -  5.833 sec      :     7.21 %
      5.833 -  2.572 sec      :    22.76 %
      2.572 -  1.134 sec      :    16.64 %
      1.134 -  0.500 sec      :    53.40 %
  
  
  ***************************
  Subcatchment Runoff Summary
  ***************************
  
  ------------------------------------------------------------------------------------------------------------------------------
                            Total      Total      Total      Total     Imperv       Perv      Total       Total     Peak  Runoff
                           Precip      Runon       Evap      Infil     Runoff     Runoff     Runoff      Runoff   Runoff   Coeff
  Subcatchment                 mm         mm         mm         mm         mm         mm         mm    10^6 ltr      LPS
  ------------------------------------------------------------------------------------------------------------------------------
  sub60                     75.61       0.00       0.00       1.86      65.34       7.22      72.55        0.95   626.64   0.960
  sub61                     75.61       0.00       0.00       2.70      61.63      10.15      71.78        1.32   872.12   0.949
  sub62                     75.61       0.00       0.00       1.24      68.28       4.81      73.09        2.00  1238.07   0.967
  sub63                     75.61       0.00       0.00       5.03      52.72      16.90      69.61        1.58  1007.00   0.921
  sub64                     75.61       0.00       0.00       2.54      63.06       8.81      71.87        1.73  1025.49   0.950
  sub65                     75.61       0.00       0.00       2.20      64.53       7.64      72.16        1.99  1148.72   0.954
  sub66                     75.61       0.00       0.00       6.29      52.60      15.64      68.25        3.18  1586.91   0.903
  sub67                     75.61       0.00       0.00       1.19      68.32       4.87      73.18        1.36   926.31   0.968
  sub68                     75.61       0.00       0.00       2.24      63.84       8.35      72.19        1.99  1267.66   0.955
  sub69                     75.61       0.00       0.00       2.03      64.16       9.31      73.47        2.72  1526.64   0.972
  sub70                     75.61       0.00       0.00       6.84      49.73      18.86      68.60        1.98   895.02   0.907
  sub71                     75.61       0.00       0.00       1.28      68.23       4.77      73.01        1.91  1105.70   0.966
  sub72                     75.61       0.00       0.00       1.14      68.91       4.16      73.07        1.00   543.82   0.966
  
  
  ******************
  Node Depth Summary
  ******************
  
  ---------------------------------------------------------------------------------
                                 Average  Maximum  Maximum  Time of Max    Reported
                                   Depth    Depth      HGL   Occurrence   Max Depth
  Node                 Type       Meters   Meters   Meters  days hr:min      Meters
  ---------------------------------------------------------------------------------
  WS02003060           JUNCTION     0.25     0.38     5.32     0  02:43        0.38
  WS02003066           JUNCTION     0.20     0.30     5.85     0  02:43        0.30
  WS02003067           JUNCTION     0.51     0.70     6.02     0  02:42        0.70
  WS02003069           JUNCTION     0.27     0.43     5.01     0  02:44        0.43
  WS02003072           JUNCTION     0.34     0.50     4.87     0  02:45        0.50
  WS02003073           JUNCTION     0.19     0.30     4.36     0  02:46        0.30
  WS02004401           JUNCTION     0.60     0.85     6.85     0  02:36        0.85
  WS02004402           JUNCTION     0.63     0.88     6.84     0  02:36        0.88
  WS02004403           JUNCTION     0.65     0.89     6.82     0  02:37        0.89
  WS02004404           JUNCTION     0.73     0.96     6.81     0  02:37        0.96
  WS02004405           JUNCTION     0.73     0.96     6.81     0  02:37        0.96
  WS02004406           JUNCTION     0.74     0.96     6.79     0  02:37        0.96
  WS02004407           JUNCTION     0.18     0.30     6.61     0  02:37        0.30
  WS02004409           JUNCTION     0.41     0.67     6.44     0  02:37        0.67
  WS02004410           JUNCTION     0.43     0.68     6.40     0  02:41        0.68
  WS02004411           JUNCTION     0.45     0.69     6.37     0  02:42        0.69
  WS02004412           JUNCTION     0.47     0.70     6.34     0  02:42        0.70
  WS02004413           JUNCTION     0.63     0.86     6.33     0  02:42        0.86
  WS02006109           JUNCTION     0.66     1.19     7.81     0  03:01        1.19
  WS02006110           JUNCTION     0.66     1.29     7.87     0  02:54        1.15
  WS02006111           JUNCTION     0.18     0.29     7.00     0  03:28        0.29
  WS02006112           JUNCTION     0.75     1.07     6.95     0  03:16        1.05
  WS02006113           JUNCTION     0.27     0.46     7.35     0  03:28        0.46
  WS02006115           JUNCTION     0.48     0.75     6.89     0  02:36        0.75
  WS02006116           JUNCTION     0.57     0.83     6.87     0  02:36        0.83
  WS02006228           JUNCTION     0.65     1.23     7.88     0  02:54        1.16
  WS02006229           JUNCTION     0.62     1.28     7.97     0  02:54        1.23
  WS02006230           JUNCTION     0.62     1.48     8.22     0  02:54        1.17
  WS02006231           JUNCTION     0.43     1.30     8.42     0  03:00        0.94
  WS02006232           JUNCTION     0.56     1.54     8.58     0  02:00        1.18
  WS02006234           JUNCTION     0.49     1.70     8.86     0  02:00        1.26
  WS02006235           JUNCTION     0.52     1.89     9.06     0  02:00        1.39
  WS02006238           JUNCTION     0.55     1.96     9.10     0  02:00        1.43
  WS02006239           JUNCTION     0.52     1.87     9.08     0  02:00        1.44
  WS02006240           JUNCTION     0.48     1.72     9.01     0  02:00        1.42
  WS02006242           JUNCTION     0.55     1.55     8.82     0  02:00        1.47
  WS02006243           JUNCTION     0.46     1.42     8.84     0  02:53        1.33
  WS02006245           JUNCTION     0.46     1.33     8.82     0  02:53        1.26
  WS02006247           JUNCTION     0.48     1.27     8.77     0  02:53        1.23
  WS02006248           JUNCTION     0.44     1.10     8.69     0  02:00        1.10
  WS02006249           JUNCTION     0.47     1.09     8.69     0  01:49        1.09
  WS02006251           JUNCTION     0.47     1.58     9.25     0  03:00        1.14
  WS02006252           JUNCTION     0.35     1.50     9.74     0  00:00        0.91
  WS02006256           JUNCTION     1.04     2.35     9.28     0  00:00        2.35
  WSF200               JUNCTION     0.18     0.29     5.52     0  02:43        0.29
  YS02001580           JUNCTION     0.11     1.05     9.59     0  02:07        0.77
  YS02001583           JUNCTION     0.14     1.14     9.64     0  02:07        0.81
  YS02001586           JUNCTION     0.23     1.13     9.30     0  02:07        1.13
  YS02001590           JUNCTION     0.33     1.40     9.26     0  02:07        1.40
  YS02001593           JUNCTION     0.26     1.33     9.20     0  02:07        1.30
  YS02001596           JUNCTION     0.36     1.70     9.12     0  02:21        1.70
  YS02001600           JUNCTION     0.43     1.87     9.00     0  02:07        1.86
  YS02001601           JUNCTION     0.62     2.06     8.90     0  02:04        2.06
  YS02001602           JUNCTION     0.53     1.87     8.77     0  02:06        1.87
  YS02001605           JUNCTION     0.49     1.78     8.68     0  02:14        1.78
  YS02001607           JUNCTION     0.47     1.68     8.53     0  02:21        1.68
  YS02001610           JUNCTION     0.52     1.68     8.48     0  02:13        1.68
  YS02001613           JUNCTION     0.47     1.70     8.54     0  02:21        1.70
  YS02001616           JUNCTION     0.40     1.61     8.52     0  02:21        1.61
  YS02001619           JUNCTION     0.38     1.61     8.54     0  02:21        1.61
  YS02001622           JUNCTION     0.37     1.62     8.52     0  02:21        1.62
  YS02001625           JUNCTION     0.63     1.78     8.38     0  02:13        1.78
  YS02001629           JUNCTION     0.49     1.85     8.40     0  02:16        1.85
  YS02001633           JUNCTION     0.57     2.08     8.53     0  02:21        2.08
  YS02001641           JUNCTION     0.54     1.98     8.42     0  02:21        1.98
  YS02001644           JUNCTION     0.54     1.92     8.35     0  02:19        1.92
  YS02001647           JUNCTION     0.31     1.90     8.51     0  02:21        1.90
  YS02001649           JUNCTION     0.35     2.05     8.44     0  02:21        2.05
  YS02001652           JUNCTION     0.24     2.16     8.76     0  02:21        2.16
  YS02001655           JUNCTION     0.18     1.98     8.83     0  02:21        1.98
  YS02001658           JUNCTION     0.13     1.40     8.54     0  02:24        1.39
  YS02001661           JUNCTION     0.16     1.19     8.60     0  02:24        1.17
  YS02001664           JUNCTION     0.06     0.65     8.57     0  02:24        0.63
  YS02001745           JUNCTION     0.07     0.86     8.37     0  02:24        0.84
  YS02001748           JUNCTION     0.12     1.29     8.37     0  02:24        1.28
  YS02001751           JUNCTION     0.15     1.47     8.35     0  02:24        1.47
  YS02001754           JUNCTION     0.21     1.74     8.35     0  02:24        1.74
  YS02001757           JUNCTION     0.38     2.17     8.44     0  02:21        2.17
  YS02001759           JUNCTION     0.32     2.21     8.57     0  02:21        2.21
  YS02001762           JUNCTION     0.30     2.15     8.55     0  02:21        2.15
  YS02001765           JUNCTION     0.28     2.10     8.55     0  02:21        2.10
  YS02001767           JUNCTION     0.28     2.03     8.52     0  02:21        2.03
  YS02001770           JUNCTION     0.29     1.95     8.44     0  02:21        1.95
  YS02001774           JUNCTION     0.36     2.05     8.47     0  02:15        2.00
  YS02001779           JUNCTION     0.19     1.68     8.37     0  02:15        1.68
  YS02001783           JUNCTION     0.26     1.31     7.45     0  02:21        1.23
  YS02001784           JUNCTION     0.28     1.17     7.23     0  02:21        1.12
  YS02001786           JUNCTION     0.23     0.93     6.96     0  02:21        0.87
  YS02001788           JUNCTION     0.17     0.62     6.60     0  02:22        0.62
  YS02001790           JUNCTION     0.20     0.72     6.37     0  02:20        0.72
  YS02001791           JUNCTION     0.12     0.44     5.91     0  02:28        0.43
  YS02001793           JUNCTION     0.07     0.30     5.14     0  02:25        0.30
  YS02001882           JUNCTION     0.33     1.83     8.55     0  02:21        1.83
  YS02001884           JUNCTION     0.42     1.85     8.47     0  02:21        1.85
  YS02001887           JUNCTION     0.50     2.00     8.54     0  02:21        2.00
  YS02001890           JUNCTION     0.53     1.81     8.32     0  02:13        1.81
  YS02001895           JUNCTION     0.30     1.57     8.31     0  02:26        1.57
  YS02001898           JUNCTION     0.31     1.56     8.30     0  02:24        1.56
  YS02001901           JUNCTION     0.42     1.84     8.45     0  02:21        1.84
  YS02001904           JUNCTION     0.40     1.70     8.33     0  02:21        1.70
  YS02001907           JUNCTION     0.73     1.96     8.25     0  02:13        1.96
  YS02001910           JUNCTION     0.53     2.10     8.61     0  02:21        2.10
  YS02001915           JUNCTION     0.33     2.00     8.72     0  02:15        2.00
  YS02001918           JUNCTION     0.18     1.81     8.88     0  02:15        1.81
  YS02001920           JUNCTION     0.26     2.14     9.15     0  02:15        2.14
  YS02001923           JUNCTION     0.14     2.03     9.29     0  02:15        2.03
  YS02001926           JUNCTION     0.17     1.90     9.35     0  02:15        1.90
  YS02001929           JUNCTION     0.10     1.78     9.47     0  02:14        1.78
  YS02006553           JUNCTION     0.73     2.03     8.31     0  02:21        2.02
  YS02006556           JUNCTION     0.70     2.39     8.70     0  02:21        2.39
  YS02006558           JUNCTION     0.74     2.50     8.77     0  02:21        2.50
  YS02006561           JUNCTION     0.16     1.02     7.68     0  02:21        0.90
  YS02163301           JUNCTION     0.51     2.03     8.55     0  02:21        2.03
  YS02163601           JUNCTION     0.60     2.05     8.45     0  02:24        2.05
  YS02164001           JUNCTION     0.53     2.10     8.56     0  02:21        2.10
  CC-1                 OUTFALL      0.00     0.00     0.00     0  00:00        0.00
  CC-2                 OUTFALL      0.00     0.00     0.00     0  00:00        0.00
  JK-1                 OUTFALL      0.00     0.00     0.00     0  00:00        0.00
  JK-2                 OUTFALL      0.00     0.00     0.00     0  00:00        0.00
  WSC                  OUTFALL      0.19     0.30     0.97     0  02:46        0.30
  CC-storage           STORAGE      0.90     1.63     7.13     0  02:49        1.63
  JK-storage           STORAGE      2.72     4.23     5.03     0  02:16        4.22
  
  
  *******************
  Node Inflow Summary
  *******************
  
  -------------------------------------------------------------------------------------------------
                                  Maximum  Maximum                  Lateral       Total        Flow
                                  Lateral    Total  Time of Max      Inflow      Inflow     Balance
                                   Inflow   Inflow   Occurrence      Volume      Volume       Error
  Node                 Type           LPS      LPS  days hr:min    10^6 ltr    10^6 ltr     Percent
  -------------------------------------------------------------------------------------------------
  WS02003060           JUNCTION     16.53   553.12     0  02:43       0.476        5.68       0.059
  WS02003066           JUNCTION      0.00   536.45     0  02:43           0         5.2       0.035
  WS02003067           JUNCTION      0.00   536.41     0  02:42           0        5.21       0.092
  WS02003069           JUNCTION      0.32   553.33     0  02:44     0.00922        5.68       0.101
  WS02003072           JUNCTION      0.00   553.21     0  02:44           0        5.68       0.165
  WS02003073           JUNCTION      1.82   554.99     0  02:45      0.0524        5.72       0.144
  WS02004401           JUNCTION      0.00   538.32     0  02:36           0        5.32       0.208
  WS02004402           JUNCTION      0.00   537.99     0  02:36           0        5.31       0.210
  WS02004403           JUNCTION      0.00   537.76     0  02:37           0         5.3       0.204
  WS02004404           JUNCTION      0.16   537.40     0  02:37     0.00467         5.3       0.170
  WS02004405           JUNCTION      0.04   537.43     0  02:37      0.0011        5.29       0.249
  WS02004406           JUNCTION      0.00   537.93     0  02:38           0        5.27       0.415
  WS02004407           JUNCTION      0.00   537.10     0  02:37           0        5.25       0.034
  WS02004409           JUNCTION      0.00   536.86     0  02:37           0        5.25       0.075
  WS02004410           JUNCTION      0.00   536.59     0  02:38           0        5.25       0.110
  WS02004411           JUNCTION      0.00   536.50     0  02:41           0        5.24       0.133
  WS02004412           JUNCTION      0.00   536.50     0  02:42           0        5.23       0.171
  WS02004413           JUNCTION      0.00   536.58     0  02:42           0        5.22       0.292
  WS02006109           JUNCTION      1.23   560.68     0  03:26      0.0354        5.38       0.203
  WS02006110           JUNCTION      0.00   562.78     0  03:26           0        5.37       0.134
  WS02006111           JUNCTION      0.00   566.02     0  03:28           0        5.36       0.016
  WS02006112           JUNCTION      0.00   545.20     0  03:28           0        5.36       0.350
  WS02006113           JUNCTION      0.00   571.56     0  03:26           0        5.36       0.040
  WS02006115           JUNCTION      0.00   550.24     0  03:16           0        5.34       0.139
  WS02006116           JUNCTION      0.00   539.48     0  02:36           0        5.33       0.124
  WS02006228           JUNCTION      0.00   557.97     0  02:54           0        5.35       0.095
  WS02006229           JUNCTION      0.00   557.64     0  02:54           0        5.35       0.103
  WS02006230           JUNCTION     10.28   590.06     0  03:00       0.296        5.36       0.089
  WS02006231           JUNCTION      0.00   570.52     0  03:25           0        5.06      -0.036
  WS02006232           JUNCTION      0.00   569.42     0  03:25           0        5.07       0.206
  WS02006234           JUNCTION      0.00   565.25     0  03:25           0        5.06      -0.196
  WS02006235           JUNCTION      0.00   560.11     0  03:00           0        5.14       0.209
  WS02006238           JUNCTION      0.00   424.85     0  03:17           0        4.16      -0.149
  WS02006239           JUNCTION      0.00   424.09     0  02:55           0        4.13      -0.082
  WS02006240           JUNCTION      0.00   421.72     0  02:55           0        4.09      -0.059
  WS02006242           JUNCTION      0.00   421.20     0  02:55           0        4.06       0.005
  WS02006243           JUNCTION      0.00   420.39     0  02:55           0        4.04      -0.102
  WS02006245           JUNCTION      0.00   420.78     0  02:55           0        4.05       0.386
  WS02006247           JUNCTION      0.00   420.15     0  02:55           0        4.05      -0.023
  WS02006248           JUNCTION      0.00   419.69     0  02:55           0        4.05       0.029
  WS02006249           JUNCTION      0.00   480.09     0  01:45           0        4.28       0.434
  WS02006251           JUNCTION      0.08   409.09     0  02:19     0.00222        4.28      -0.033
  WS02006252           JUNCTION      0.00   400.00     0  00:00           0        4.27      -0.086
  WS02006256           JUNCTION      0.00   300.00     0  00:00           0        1.45      -0.581
  WSF200               JUNCTION      0.00   536.48     0  02:43           0         5.2       0.017
  YS02001580           JUNCTION      0.00    79.33     0  02:07           0     0.00416      -1.685
  YS02001583           JUNCTION      0.00   105.32     0  02:06           0      0.0159      -3.093
  YS02001586           JUNCTION    895.02   895.02     0  02:26        1.98        1.99       0.043
  YS02001590           JUNCTION      0.00   319.04     0  02:21           0        1.47      -0.032
  YS02001593           JUNCTION      0.00   317.99     0  02:19           0        1.47      -0.001
  YS02001596           JUNCTION      0.00   317.97     0  02:32           0        1.47      -0.011
  YS02001600           JUNCTION      0.00   317.96     0  02:42           0        1.47       0.021
  YS02001601           JUNCTION   1526.64  1844.14     0  02:25        2.72        4.19       0.013
  YS02001602           JUNCTION      0.00   495.66     0  02:06           0         2.5       0.019
  YS02001605           JUNCTION      0.00   495.51     0  02:06           0        2.37       0.023
  YS02001607           JUNCTION      0.00   495.33     0  02:06           0        2.37       0.076
  YS02001610           JUNCTION      0.00   896.15     0  02:26           0        2.72       0.081
  YS02001613           JUNCTION      0.00   559.54     0  02:26           0        2.19       0.070
  YS02001616           JUNCTION      0.00   559.09     0  02:26           0        2.19       0.017
  YS02001619           JUNCTION   1586.91  1586.91     0  02:26        3.18        5.02      -0.002
  YS02001622           JUNCTION      0.00  1030.46     0  02:25           0        4.66       0.002
  YS02001625           JUNCTION      0.00  1470.06     0  02:26           0        4.95       0.190
  YS02001629           JUNCTION      0.00   934.23     0  02:13           0        3.84       0.024
  YS02001633           JUNCTION   1148.92  1355.50     0  02:13        1.99        5.52       0.064
  YS02001641           JUNCTION      0.00  1355.20     0  02:13           0        5.21       0.052
  YS02001644           JUNCTION   1025.53  1734.55     0  02:13        1.73        6.93       0.046
  YS02001647           JUNCTION      0.00  1734.75     0  02:13           0        6.36       0.004
  YS02001649           JUNCTION      0.00  1987.40     0  02:14           0        7.95       0.001
  YS02001652           JUNCTION      0.00  1019.03     0  02:25           0        1.58      -0.067
  YS02001655           JUNCTION      0.15  1019.21     0  02:25     0.00443        1.58       0.011
  YS02001658           JUNCTION      0.00  1019.42     0  02:25           0        1.58      -0.008
  YS02001661           JUNCTION      0.00  1018.56     0  02:25           0        1.58       0.015
  YS02001664           JUNCTION   1007.00  1007.00     0  02:25        1.58        1.58      -0.007
  YS02001745           JUNCTION    626.65   626.65     0  02:25       0.954       0.954       0.136
  YS02001748           JUNCTION      0.04   631.29     0  02:25      0.0013       0.955      -0.217
  YS02001751           JUNCTION      0.01   631.97     0  02:25    0.000317       0.958       0.020
  YS02001754           JUNCTION      0.26   632.20     0  02:25     0.00749       0.966      -0.180
  YS02001757           JUNCTION      0.00  3436.94     0  02:20           0          12       0.041
  YS02001759           JUNCTION    872.16  1389.02     0  02:21        1.32        3.09      -0.014
  YS02001762           JUNCTION      0.00   789.47     0  02:20           0        1.77      -0.010
  YS02001765           JUNCTION      0.00   790.34     0  02:20           0        1.77      -0.004
  YS02001767           JUNCTION      0.54   790.84     0  02:20      0.0154        1.76       0.002
  YS02001770           JUNCTION   1238.22  1238.22     0  02:25        2.01        2.06      -0.021
  YS02001774           JUNCTION      0.00   738.87     0  02:25           0        0.33       0.296
  YS02001779           JUNCTION      0.01   740.63     0  02:25    0.000144       0.283      -0.085
  YS02001783           JUNCTION      0.00  1177.71     0  02:21           0        4.52       0.004
  YS02001784           JUNCTION      1.06  1177.40     0  02:21      0.0305        4.55       0.010
  YS02001786           JUNCTION      0.06  1177.86     0  02:21     0.00162        4.56       0.016
  YS02001788           JUNCTION      0.07  1178.86     0  02:21     0.00204        4.56       0.007
  YS02001790           JUNCTION      0.15  1175.11     0  02:21     0.00446        4.56       0.026
  YS02001791           JUNCTION      0.00  1287.97     0  02:20           0        4.56      -0.029
  YS02001793           JUNCTION      0.00  1250.58     0  02:20           0        4.56       0.002
  YS02001882           JUNCTION      0.00    32.95     0  02:11           0      0.0131       3.340
  YS02001884           JUNCTION      0.00    36.41     0  02:10           0      0.0491       4.876
  YS02001887           JUNCTION    926.76   927.15     0  02:25        1.37        1.41       0.309
  YS02001890           JUNCTION      0.00   928.35     0  02:25           0        1.37       0.370
  YS02001895           JUNCTION      0.00   519.70     0  02:21           0        1.22       0.126
  YS02001898           JUNCTION      0.00   518.02     0  02:28           0        1.22      -0.002
  YS02001901           JUNCTION      0.00   518.16     0  02:28           0        1.23       0.258
  YS02001904           JUNCTION      0.00   525.87     0  02:21           0        1.23       0.224
  YS02001907           JUNCTION      0.00  2272.02     0  02:25           0        4.23       0.415
  YS02001910           JUNCTION      0.00  1653.91     0  02:25           0           3       0.232
  YS02001915           JUNCTION   1105.72  1653.02     0  02:25        1.91        3.02       0.043
  YS02001918           JUNCTION      0.00   552.87     0  02:25           0        1.12      -0.014
  YS02001920           JUNCTION      2.87   552.88     0  02:25      0.0827        1.11       0.065
  YS02001923           JUNCTION      0.04   549.44     0  02:25     0.00109        1.02      -0.041
  YS02001926           JUNCTION      0.05   548.87     0  02:25      0.0015        1.01      -0.011
  YS02001929           JUNCTION    543.82   543.82     0  02:26           1           1      -0.035
  YS02006553           JUNCTION      0.00   811.34     0  02:41           0        2.58       0.453
  YS02006556           JUNCTION      0.00   811.64     0  02:41           0        2.59       0.294
  YS02006558           JUNCTION   1268.54  1268.54     0  02:25        2.01        4.57       0.073
  YS02006561           JUNCTION      0.00  1174.24     0  02:21           0        4.52      -0.006
  YS02163301           JUNCTION      0.00   933.76     0  02:12           0        3.84       0.041
  YS02163601           JUNCTION      0.11  1355.52     0  02:13     0.00317         5.2       0.095
  YS02164001           JUNCTION      0.00  1355.38     0  02:13           0         5.2       0.036
  CC-1                 OUTFALL       0.00   683.00     0  00:00           0        3.93       0.000
  CC-2                 OUTFALL       0.00   683.00     0  00:00           0        3.82       0.000
  JK-1                 OUTFALL       0.00  1000.00     0  00:00           0        2.02       0.000
  JK-2                 OUTFALL       0.00  1000.00     0  00:00           0        1.09       0.000
  WSC                  OUTFALL       0.00   554.96     0  02:46           0        5.71       0.000
  CC-storage           STORAGE       0.00  3436.99     0  02:20           0        14.2      -0.086
  JK-storage           STORAGE       0.00  1265.45     0  02:33           0        4.71       0.024
  
  
  **********************
  Node Surcharge Summary
  **********************
  
  Surcharging occurs when water rises above the top of the highest conduit.
  ---------------------------------------------------------------------
                                               Max. Height   Min. Depth
                                   Hours       Above Crown    Below Rim
  Node                 Type      Surcharged         Meters       Meters
  ---------------------------------------------------------------------
  WS02006109           JUNCTION        2.25          0.373        1.447
  WS02006110           JUNCTION        0.71          0.380        1.470
  WS02006112           JUNCTION        0.62          0.072        1.608
  WS02006228           JUNCTION        2.24          0.397        1.803
  WS02006229           JUNCTION        2.25          0.479        1.971
  WS02006230           JUNCTION        0.72          0.399        1.171
  WS02006231           JUNCTION        0.83          0.591        0.939
  WS02006232           JUNCTION        2.27          0.839        0.641
  WS02006234           JUNCTION        1.29          0.984        0.256
  WS02006235           JUNCTION        2.23          1.182        0.108
  WS02006238           JUNCTION        2.26          1.241        0.189
  WS02006239           JUNCTION        2.23          1.127        0.163
  WS02006240           JUNCTION        2.24          1.007        0.383
  WS02006242           JUNCTION        2.27          0.820        0.000
  WS02006243           JUNCTION        2.08          0.710        0.060
  WS02006245           JUNCTION        2.07          0.623        0.227
  WS02006247           JUNCTION        2.07          0.563        0.197
  WS02006248           JUNCTION        2.05          0.380        0.000
  WS02006249           JUNCTION        2.05          0.390        0.000
  WS02006251           JUNCTION        0.87          0.552        0.628
  WS02006252           JUNCTION        2.28          1.100        0.000
  WS02006256           JUNCTION        6.05          2.050        0.000
  YS02001580           JUNCTION        0.73          0.450        0.000
  YS02001583           JUNCTION        0.74          0.500        0.000
  YS02001586           JUNCTION        0.85          0.510        0.000
  YS02001590           JUNCTION        0.94          0.750        0.000
  YS02001593           JUNCTION        0.94          0.714        0.126
  YS02001596           JUNCTION        1.06          0.971        0.099
  YS02001600           JUNCTION        1.22          1.190        0.000
  YS02001601           JUNCTION        1.58          1.440        0.000
  YS02001602           JUNCTION        1.46          1.270        0.000
  YS02001605           JUNCTION        1.40          1.180        0.000
  YS02001607           JUNCTION        0.91          0.680        0.000
  YS02001610           JUNCTION        0.94          0.680        0.000
  YS02001613           JUNCTION        0.90          0.700        0.000
  YS02001616           JUNCTION        0.86          0.610        0.000
  YS02001619           JUNCTION        0.84          0.610        0.000
  YS02001622           JUNCTION        0.84          0.620        0.000
  YS02001625           JUNCTION        1.03          0.780        0.000
  YS02001629           JUNCTION        0.77          0.470        0.000
  YS02001633           JUNCTION        1.05          1.060        0.000
  YS02001641           JUNCTION        0.98          0.978        0.122
  YS02001644           JUNCTION        0.94          0.920        0.000
  YS02001647           JUNCTION        0.67          0.900        0.000
  YS02001649           JUNCTION        0.79          1.050        0.000
  YS02001652           JUNCTION        0.59          1.130        0.000
  YS02001655           JUNCTION        0.43          0.979        0.221
  YS02001658           JUNCTION        0.26          0.403        0.897
  YS02001661           JUNCTION        0.07          0.122        1.268
  YS02001748           JUNCTION        0.18          0.211        0.979
  YS02001751           JUNCTION        0.32          0.474        0.726
  YS02001754           JUNCTION        0.49          0.689        0.461
  YS02001757           JUNCTION        0.83          1.174        0.036
  YS02001759           JUNCTION        0.74          1.210        0.000
  YS02001762           JUNCTION        0.71          1.150        0.000
  YS02001765           JUNCTION        0.67          1.100        0.000
  YS02001767           JUNCTION        0.63          1.030        0.000
  YS02001770           JUNCTION        0.60          0.920        0.000
  YS02001774           JUNCTION        0.69          1.050        0.000
  YS02001779           JUNCTION        0.48          0.680        0.000
  YS02001783           JUNCTION        0.63          0.510        1.090
  YS02001784           JUNCTION        0.60          0.366        1.124
  YS02001786           JUNCTION        0.48          0.132        1.298
  YS02001882           JUNCTION        0.56          0.830        0.000
  YS02001884           JUNCTION        0.58          0.790        0.080
  YS02001887           JUNCTION        0.62          0.950        0.000
  YS02001890           JUNCTION        0.63          0.760        0.000
  YS02001895           JUNCTION        0.55          0.567        0.183
  YS02001898           JUNCTION        0.55          0.535        0.205
  YS02001901           JUNCTION        0.60          0.842        0.028
  YS02001904           JUNCTION        0.59          0.695        0.155
  YS02001907           JUNCTION        0.92          0.950        0.000
  YS02001910           JUNCTION        0.66          1.100        0.000
  YS02001915           JUNCTION        0.56          1.000        0.000
  YS02001918           JUNCTION        0.47          0.810        0.000
  YS02001920           JUNCTION        0.48          1.140        0.000
  YS02001923           JUNCTION        0.14          0.820        0.000
  YS02001926           JUNCTION        0.17          0.900        0.000
  YS02001929           JUNCTION        0.01          0.780        0.000
  YS02006553           JUNCTION        0.94          1.026        0.164
  YS02006556           JUNCTION        0.78          1.350        0.000
  YS02006558           JUNCTION        0.75          1.400        0.000
  YS02006561           JUNCTION        0.43          0.221        0.929
  YS02163301           JUNCTION        1.03          1.030        0.000
  YS02163601           JUNCTION        1.08          1.049        0.031
  YS02164001           JUNCTION        0.98          1.100        0.000
  
  
  *********************
  Node Flooding Summary
  *********************
  
  Flooding refers to all water that overflows a node, whether it ponds or not.
  --------------------------------------------------------------------------
                                                             Total   Maximum
                                 Maximum   Time of Max       Flood    Ponded
                        Hours       Rate    Occurrence      Volume     Depth
  Node                 Flooded       LPS   days hr:min    10^6 ltr    Meters
  --------------------------------------------------------------------------
  WS02006242              0.01      9.43      0  02:53       0.000     0.000
  WS02006248              0.01      8.30      0  02:53       0.000     0.000
  WS02006249              0.84    105.21      0  02:19       0.206     0.000
  WS02006252              0.01    245.63      0  00:00       0.000     0.000
  WS02006256              1.34    293.19      0  00:00       0.433     0.000
  YS02001580              0.01     70.16      0  02:07       0.000     0.000
  YS02001583              0.01     29.75      0  02:07       0.000     0.000
  YS02001586              0.57    577.32      0  02:26       0.508     0.000
  YS02001590              0.01      2.59      0  02:07       0.000     0.000
  YS02001600              0.01     10.89      0  02:21       0.000     0.000
  YS02001601              0.78   1446.24      0  02:25       1.694     0.000
  YS02001602              0.62     62.00      0  02:46       0.126     0.000
  YS02001605              0.01      0.19      0  02:21       0.000     0.000
  YS02001607              0.01      0.14      0  02:21       0.000     0.000
  YS02001610              0.55    896.08      0  02:26       0.885     0.000
  YS02001613              0.01      0.50      0  02:21       0.000     0.000
  YS02001616              0.01      1.36      0  02:21       0.000     0.000
  YS02001619              0.01      4.00      0  02:23       0.000     0.000
  YS02001622              0.01      0.65      0  02:21       0.000     0.000
  YS02001625              0.50   1469.90      0  02:26       1.413     0.000
  YS02001629              0.17    116.45      0  02:25       0.026     0.000
  YS02001633              0.01      1.37      0  02:21       0.000     0.000
  YS02001644              0.23   1364.22      0  02:25       0.555     0.000
  YS02001647              0.01      1.84      0  02:21       0.000     0.000
  YS02001649              0.01      3.85      0  02:21       0.000     0.000
  YS02001652              0.01      2.47      0  02:21       0.000     0.000
  YS02001759              0.01      3.62      0  02:21       0.000     0.000
  YS02001762              0.01      3.89      0  02:21       0.000     0.000
  YS02001765              0.01      3.01      0  02:21       0.000     0.000
  YS02001767              0.01      1.52      0  02:21       0.000     0.000
  YS02001770              0.01      8.78      0  02:21       0.000     0.000
  YS02001774              0.01     39.76      0  02:15       0.000     0.000
  YS02001779              0.20    739.87      0  02:25       0.264     0.000
  YS02001882              0.01      0.44      0  02:21       0.000     0.000
  YS02001887              0.01      1.95      0  02:21       0.000     0.000
  YS02001890              0.21    412.25      0  02:25       0.138     0.000
  YS02001907              0.41   2270.67      0  02:25       1.657     0.000
  YS02001910              0.01      0.71      0  02:21       0.000     0.000
  YS02001915              0.01      4.82      0  02:15       0.000     0.000
  YS02001918              0.01     58.86      0  02:15       0.000     0.000
  YS02001920              0.01      6.28      0  02:15       0.000     0.000
  YS02001923              0.01     77.47      0  02:15       0.000     0.000
  YS02001926              0.01     21.61      0  02:15       0.000     0.000
  YS02001929              0.01    115.42      0  02:14       0.000     0.000
  YS02006556              0.01      2.22      0  02:21       0.000     0.000
  YS02006558              0.01      0.13      0  02:21       0.000     0.000
  YS02163301              0.01      0.90      0  02:21       0.000     0.000
  YS02164001              0.01      1.72      0  02:21       0.000     0.000
  
  
  **********************
  Storage Volume Summary
  **********************
  
  ------------------------------------------------------------------------------------------------
                         Average    Avg   Evap  Exfil     Maximum    Max    Time of Max    Maximum
                          Volume   Pcnt   Pcnt   Pcnt      Volume   Pcnt     Occurrence    Outflow
  Storage Unit           1000 m³   Full   Loss   Loss     1000 m³   Full    days hr:min        LPS
  ------------------------------------------------------------------------------------------------
  CC-storage               2.507   39.1    0.0    0.0       4.555   71.1       0  02:49    1783.53
  JK-storage               0.137   46.9    0.0    0.0       0.213   72.9       0  02:16    2300.00
  
  
  ***********************
  Outfall Loading Summary
  ***********************
  
  -----------------------------------------------------------
                         Flow       Avg       Max       Total
                         Freq      Flow      Flow      Volume
  Outfall Node           Pcnt       LPS       LPS    10^6 ltr
  -----------------------------------------------------------
  CC-1                  26.27    683.00    683.00       3.928
  CC-2                  27.42    683.00    683.00       3.819
  JK-1                   8.29   1000.00   1000.00       2.018
  JK-2                   7.52   1000.00   1000.00       1.092
  WSC                   99.96    273.46    554.96       5.713
  -----------------------------------------------------------
  System                33.89   3639.46   3918.30      16.570
  
  
  ********************
  Link Flow Summary
  ********************
  
  -----------------------------------------------------------------------------
                                 Maximum  Time of Max   Maximum    Max/    Max/
                                  |Flow|   Occurrence   |Veloc|    Full    Full
  Link                 Type          LPS  days hr:min     m/sec    Flow   Depth
  -----------------------------------------------------------------------------
  1                    CONDUIT    554.96     0  02:46      2.83    0.19    0.30
  WS02003060WS02003069 CONDUIT    553.01     0  02:44      1.64    0.22    0.34
  WS02003066WSF200     CONDUIT    536.48     0  02:43      2.85    0.09    0.22
  WS02003067WS02003066 CONDUIT    536.45     0  02:43      1.21    0.17    0.42
  WS02003069WS02003072 CONDUIT    553.21     0  02:44      1.37    0.27    0.39
  WS02003072WS02003073 CONDUIT    553.17     0  02:45      1.44    1.19    0.37
  WS02004401WS02004402 CONDUIT    537.99     0  02:36      0.98    0.65    0.86
  WS02004402WS02004403 CONDUIT    537.76     0  02:37      0.97    0.77    0.88
  WS02004403WS02004404 CONDUIT    537.23     0  02:37      0.92    0.39    0.93
  WS02004404WS02004405 CONDUIT    537.39     0  02:37      1.08    5.26    0.96
  WS02004405WS02004406 CONDUIT    537.93     0  02:38      0.99    1.06    0.96
  WS02004406WS02004407 CONDUIT    537.10     0  02:37      1.04    0.24    0.63
  WS02004407WS02004409 CONDUIT    536.86     0  02:37      1.56    0.19    0.48
  WS02004409WS02004410 CONDUIT    536.59     0  02:38      1.03    0.69    0.67
  WS02004410WS02004411 CONDUIT    536.50     0  02:41      0.96    0.73    0.69
  WS02004411WS02004412 CONDUIT    536.50     0  02:42      0.92    0.76    0.69
  WS02004412WS02004413 CONDUIT    536.58     0  02:42      0.82    0.36    0.78
  WS02004413WS02003067 CONDUIT    536.41     0  02:42      1.11    0.23    0.59
  WS02006109WS02006110 CONDUIT    562.78     0  03:26      1.12    1.08    1.00
  WS02006110WS02006113 CONDUIT    571.56     0  03:26      1.37    0.52    0.79
  WS02006111WS02006112 CONDUIT    545.20     0  03:28      1.81    0.26    0.67
  WS02006112WS02006115 CONDUIT    550.24     0  03:16      0.85    0.32    0.87
  WS02006113WS02006111 CONDUIT    566.02     0  03:28      2.47    0.68    0.46
  WS02006115WS02006116 CONDUIT    539.48     0  02:36      1.04    0.69    0.76
  WS02006116WS02004401 CONDUIT    538.32     0  02:36      0.98    0.74    0.84
  WS02006228WS02006109 CONDUIT    559.45     0  03:26      1.11    2.44    1.00
  WS02006229WS02006228 CONDUIT    557.97     0  02:54      1.14    1.85    1.00
  WS02006230WS02006229 CONDUIT    557.64     0  02:54      1.45   12.41    1.00
  WS02006231WS02006230 CONDUIT    579.78     0  03:00      1.59    8.79    1.00
  WS02006232WS02006231 CONDUIT    570.52     0  03:25      1.49    1.20    1.00
  WS02006234WS02006232 CONDUIT    569.42     0  03:25      1.48    1.15    1.00
  WS02006235WS02006234 CONDUIT    565.25     0  03:25      1.47    5.96    1.00
  WS02006238WS02006235 CONDUIT    429.39     0  03:17      1.45    0.96    1.00
  WS02006239WS02006238 CONDUIT    424.85     0  03:17      1.10    1.36    1.00
  WS02006240WS02006239 CONDUIT    424.09     0  02:55      1.24    1.33    1.00
  WS02006242WS02006240 CONDUIT    421.72     0  02:55      1.13    1.67    1.00
  WS02006243WS02006242 CONDUIT    421.20     0  02:55      1.40    0.90    1.00
  WS02006245WS02006243 CONDUIT    420.39     0  02:55      1.45    1.24    1.00
  WS02006247WS02006245 CONDUIT    420.78     0  02:55      1.43    3.34    1.00
  WS02006248WS02006247 CONDUIT    420.15     0  02:55      1.44    0.91    1.00
  WS02006249WS02006248 CONDUIT    419.69     0  02:55      1.40    2.30    1.00
  WS02006251WS02006249 CONDUIT    480.09     0  01:45      1.99    1.38    1.00
  WS02006252WS02006251 CONDUIT    409.01     0  02:19     24.61    1.50    1.00
  WS02006256WS02006235 CONDUIT    288.91     0  00:00      4.23    3.06    1.00
  WSF200WS02003060     CONDUIT    536.59     0  02:43      2.06    0.12    0.28
  YS02001580YS02001583 CONDUIT     79.33     0  02:07      0.48    0.31    1.00
  YS02001583YS02001586 CONDUIT    105.32     0  02:06      0.45    0.16    1.00
  YS02001586YS02001590 CONDUIT    319.04     0  02:21      1.24    0.56    1.00
  YS02001590YS02001593 CONDUIT    317.99     0  02:19      1.12    2.00    1.00
  YS02001593YS02001596 CONDUIT    317.97     0  02:32      1.76    0.50    1.00
  YS02001596YS02001600 CONDUIT    317.96     0  02:42      1.28    0.62    1.00
  YS02001600YS02001601 CONDUIT    317.91     0  02:19      1.12    0.55    1.00
  YS02001601YS02001602 CONDUIT    495.66     0  02:06      1.75    1.79    1.00
  YS02001602YS02001605 CONDUIT    495.51     0  02:06      1.75   10.49    1.00
  YS02001605YS02001607 CONDUIT    495.33     0  02:06      1.75    2.72    1.00
  YS02001607YS02001610 CONDUIT    494.31     0  02:05      0.63    0.47    1.00
  YS02001610YS02001613 CONDUIT    559.90     0  02:26      0.71    0.65    1.00
  YS02001613YS02001616 CONDUIT    559.54     0  02:26      0.71    0.48    1.00
  YS02001616YS02001619 CONDUIT    559.09     0  02:26      0.71    0.97    1.00
  YS02001619YS02001622 CONDUIT   1030.46     0  02:25      1.31    1.52    1.00
  YS02001622YS02001625 CONDUIT   1031.19     0  02:25      1.31    0.55    1.00
  YS02001625YS02001629 CONDUIT    934.23     0  02:13      1.19    0.44    1.00
  YS02001629YS02163301 CONDUIT    933.76     0  02:12      1.19    1.15    1.00
  YS02001633YS02163601 CONDUIT   1355.41     0  02:13      1.73    1.42    1.00
  YS02001641YS02001644 CONDUIT   1354.78     0  02:13      1.72    4.38    1.00
  YS02001644YS02001647 CONDUIT   1734.75     0  02:13      2.22    1.02    1.00
  YS02001647YS02001649 CONDUIT   1746.15     0  02:14      2.31    0.92    1.00
  YS02001649YS02001757 CONDUIT   1988.67     0  02:14      2.53    1.21    1.00
  YS02001652YS02001649 CONDUIT   1018.74     0  02:25      1.30    0.50    1.00
  YS02001655YS02001652 CONDUIT   1019.03     0  02:25      1.30    0.49    1.00
  YS02001658YS02001655 CONDUIT   1019.06     0  02:25      1.82    0.43    1.00
  YS02001661YS02001658 CONDUIT   1019.42     0  02:25      2.24    0.40    1.00
  YS02001664YS02001661 CONDUIT   1018.56     0  02:25      2.22    0.32    0.82
  YS02001745YS02001748 CONDUIT    631.25     0  02:25      2.09    0.24    0.93
  YS02001748YS02001751 CONDUIT    631.96     0  02:25      1.63    0.32    1.00
  YS02001751YS02001754 CONDUIT    631.94     0  02:25      1.36    0.30    1.00
  YS02001754YS02001757 CONDUIT    631.50     0  02:25      0.80    0.25    1.00
  YS02001757CaochengTiaoxuchi CONDUIT   3436.99     0  02:20      4.38    1.49    1.00
  YS02001759YS02001757 CONDUIT   1401.13     0  02:21      1.78    1.00    1.00
  YS02001762YS02001759 CONDUIT    788.47     0  02:20      1.00    0.91    1.00
  YS02001765YS02001762 CONDUIT    789.47     0  02:20      1.01    0.74    1.00
  YS02001767YS02001765 CONDUIT    790.34     0  02:20      1.01    0.99    1.00
  YS02001770YS02001767 CONDUIT    790.31     0  02:20      1.01    3.13    1.00
  YS02001774YS02001770 CONDUIT    738.87     0  02:25      0.94    0.47    1.00
  YS02001779YS02001774 CONDUIT    740.63     0  02:25      0.94    0.37    1.00
  YS02001783YS02001784 CONDUIT   1176.34     0  02:21      2.34    1.62    1.00
  YS02001784YS02001785 CONDUIT   1177.81     0  02:21      2.34    2.74    1.00
  YS02001786YS02001788 CONDUIT   1178.79     0  02:21      2.51    2.27    0.89
  YS02001788YS02001790 CONDUIT   1174.95     0  02:21      2.72    0.87    0.84
  YS02001790YS02001791 CONDUIT   1287.97     0  02:20      3.43    1.40    0.70
  YS02001791YS02001793 CONDUIT   1250.58     0  02:20      6.75    0.54    0.45
  YS02001793JiankangQianchi CONDUIT   1265.45     0  02:33      2.53    0.10    0.65
  YS02001882YS02001884 CONDUIT     32.95     0  02:11      0.14    0.04    1.00
  YS02001884YS02001887 CONDUIT     36.87     0  02:52      0.10    0.05    1.00
  YS02001887YS02001890 CONDUIT    928.35     0  02:25      1.18    1.59    1.00
  YS02001890YS02001895 CONDUIT    519.70     0  02:21      0.66    0.24    1.00
  YS02001895YS02001898 CONDUIT    518.02     0  02:28      0.66    0.90    1.00
  YS02001898YS02001901 CONDUIT    518.16     0  02:28      0.66    0.33    1.00
  YS02001901YS02001904 CONDUIT    525.87     0  02:21      0.67    0.82    1.00
  YS02001904YS02001907 CONDUIT    518.28     0  02:28      0.66    0.18    1.00
  YS02001907YS02006553 CONDUIT    811.34     0  02:41      0.90    0.95    1.00
  YS02001910YS02001907 CONDUIT   1653.20     0  02:25      2.10    0.93    1.00
  YS02001915YS02001910 CONDUIT   1653.91     0  02:25      2.11    0.82    1.00
  YS02001918YS02001915 CONDUIT    553.41     0  02:25      0.70    0.31    1.00
  YS02001920YS02001918 CONDUIT    552.87     0  02:25      0.70    0.53    1.00
  YS02001923YS02001920 CONDUIT    550.01     0  02:25      0.70    0.25    1.00
  YS02001926YS02001923 CONDUIT    549.40     0  02:25      0.94    0.78    1.00
  YS02001929YS02001926 CONDUIT    548.82     0  02:25      1.06    0.26    1.00
  YS02006553YS02006556 CONDUIT    811.64     0  02:41      1.03    0.69    1.00
  YS02006556YS02006558 CONDUIT    813.69     0  02:41      1.04    0.64    1.00
  YS02006558YS02006561 CONDUIT   1174.24     0  02:21      4.15    2.60    1.00
  YS02006561YS02001783 CONDUIT   1177.71     0  02:21      2.34    0.61    1.00
  YS02163301YS02001633 CONDUIT    933.84     0  02:12      1.19    0.88    1.00
  YS02163601YS02164001 CONDUIT   1355.38     0  02:13      1.73    1.20    1.00
  YS02164001YS02001641 CONDUIT   1355.20     0  02:13      1.73    1.85    1.00
  CC-R1                PUMP       683.00     0  00:00              1.00
  CC-R2                PUMP       683.00     0  00:00              1.00
  CC-S1                PUMP       200.00     0  00:00              1.00
  CC-S2                PUMP       200.00     0  00:00              1.00
  JK-R1                PUMP      1000.00     0  00:00              1.00
  JK-R2                PUMP      1000.00     0  00:00              1.00
  JK-S                 PUMP       300.00     0  00:00              1.00
  
  
  ***************************
  Flow Classification Summary
  ***************************
  
  -------------------------------------------------------------------------------------
                      Adjusted    ---------- Fraction of Time in Flow Class ---------- 
                       /Actual         Up    Down  Sub   Sup   Up    Down  Norm  Inlet 
  Conduit               Length    Dry  Dry   Dry   Crit  Crit  Crit  Crit  Ltd   Ctrl  
  -------------------------------------------------------------------------------------
  1                       1.00   0.00  0.00  0.00  0.00  1.00  0.00  0.00  0.39  0.00
  WS02003060WS02003069    1.00   0.00  0.00  0.00  0.98  0.02  0.00  0.00  0.68  0.00
  WS02003066WSF200        1.00   0.13  0.00  0.00  0.00  0.87  0.00  0.00  0.77  0.00
  WS02003067WS02003066    1.00   0.10  0.02  0.00  0.88  0.00  0.00  0.00  0.00  0.00
  WS02003069WS02003072    1.00   0.00  0.00  0.00  0.99  0.01  0.00  0.00  0.70  0.00
  WS02003072WS02003073    1.00   0.00  0.00  0.00  0.00  0.00  0.00  1.00  0.00  0.00
  WS02004401WS02004402    1.00   0.02  0.00  0.00  0.98  0.00  0.00  0.00  0.00  0.00
  WS02004402WS02004403    1.00   0.02  0.00  0.00  0.97  0.00  0.00  0.00  0.00  0.00
  WS02004403WS02004404    1.00   0.00  0.03  0.00  0.97  0.00  0.00  0.00  0.00  0.00
  WS02004404WS02004405    1.00   0.00  0.00  0.00  1.00  0.00  0.00  0.00  0.01  0.00
  WS02004405WS02004406    1.00   0.00  0.00  0.00  1.00  0.00  0.00  0.00  0.00  0.00
  WS02004406WS02004407    1.00   0.00  0.05  0.00  0.95  0.00  0.00  0.00  0.00  0.00
  WS02004407WS02004409    1.00   0.05  0.00  0.00  0.94  0.01  0.00  0.00  0.94  0.00
  WS02004409WS02004410    1.00   0.05  0.00  0.00  0.95  0.00  0.00  0.00  0.03  0.00
  WS02004410WS02004411    1.00   0.05  0.00  0.00  0.95  0.00  0.00  0.00  0.01  0.00
  WS02004411WS02004412    1.00   0.05  0.00  0.00  0.95  0.00  0.00  0.00  0.00  0.00
  WS02004412WS02004413    1.00   0.05  0.00  0.00  0.94  0.00  0.00  0.00  0.01  0.00
  WS02004413WS02003067    1.00   0.06  0.04  0.00  0.00  0.00  0.90  0.00  0.00  0.00
  WS02006109WS02006110    1.00   0.00  0.01  0.00  0.98  0.00  0.01  0.00  0.00  0.00
  WS02006110WS02006113    1.00   0.01  0.01  0.00  0.98  0.00  0.00  0.00  0.00  0.00
  WS02006111WS02006112    1.00   0.02  0.00  0.00  0.98  0.00  0.00  0.00  0.98  0.00
  WS02006112WS02006115    1.00   0.02  0.00  0.00  0.97  0.00  0.00  0.00  0.00  0.00
  WS02006113WS02006111    1.00   0.02  0.00  0.00  0.00  0.98  0.00  0.00  0.13  0.00
  WS02006115WS02006116    1.00   0.02  0.00  0.00  0.97  0.00  0.00  0.01  0.00  0.00
  WS02006116WS02004401    1.00   0.02  0.00  0.00  0.98  0.00  0.00  0.00  0.00  0.00
  WS02006228WS02006109    1.00   0.00  0.00  0.00  1.00  0.00  0.00  0.00  0.00  0.00
  WS02006229WS02006228    1.00   0.00  0.00  0.00  0.99  0.00  0.00  0.01  0.00  0.00
  WS02006230WS02006229    1.00   0.00  0.00  0.00  0.99  0.00  0.00  0.01  0.00  0.00
  WS02006231WS02006230    1.00   0.00  0.00  0.00  0.30  0.00  0.70  0.00  0.00  0.00
  WS02006232WS02006231    1.00   0.00  0.00  0.00  0.98  0.00  0.01  0.00  0.00  0.00
  WS02006234WS02006232    1.00   0.00  0.00  0.00  1.00  0.00  0.00  0.00  0.09  0.00
  WS02006235WS02006234    1.00   0.00  0.00  0.00  0.84  0.00  0.16  0.00  0.00  0.00
  WS02006238WS02006235    1.00   0.00  0.00  0.00  1.00  0.00  0.00  0.00  0.00  0.00
  WS02006239WS02006238    1.00   0.00  0.00  0.00  1.00  0.00  0.00  0.00  0.24  0.00
  WS02006240WS02006239    1.00   0.00  0.00  0.00  0.68  0.00  0.00  0.32  0.04  0.00
  WS02006242WS02006240    1.00   0.00  0.00  0.00  0.98  0.00  0.01  0.00  0.00  0.00
  WS02006243WS02006242    1.00   0.00  0.00  0.00  0.98  0.00  0.00  0.01  0.49  0.00
  WS02006245WS02006243    1.00   0.00  0.00  0.00  0.76  0.00  0.00  0.24  0.02  0.00
  WS02006247WS02006245    1.00   0.00  0.00  0.00  0.97  0.00  0.00  0.03  0.00  0.00
  WS02006248WS02006247    1.00   0.00  0.00  0.00  0.98  0.00  0.00  0.02  0.30  0.00
  WS02006249WS02006248    1.00   0.00  0.00  0.00  0.52  0.00  0.48  0.00  0.00  0.00
  WS02006251WS02006249    1.00   0.00  0.00  0.00  0.99  0.01  0.00  0.00  0.49  0.00
  WS02006252WS02006251    1.00   0.00  0.53  0.00  0.11  0.00  0.36  0.00  0.00  0.00
  WS02006256WS02006235    1.00   0.00  0.00  0.00  0.99  0.01  0.00  0.00  0.00  0.00
  WSF200WS02003060        1.00   0.00  0.13  0.00  0.27  0.61  0.00  0.00  0.45  0.00
  YS02001580YS02001583    1.00   0.26  0.53  0.00  0.21  0.00  0.00  0.00  0.62  0.00
  YS02001583YS02001586    1.00   0.40  0.34  0.00  0.26  0.00  0.00  0.00  0.63  0.00
  YS02001586YS02001590    1.00   0.13  0.00  0.00  0.46  0.04  0.00  0.37  0.38  0.00
  YS02001590YS02001593    1.00   0.13  0.01  0.00  0.13  0.00  0.73  0.00  0.00  0.00
  YS02001593YS02001596    1.00   0.13  0.00  0.00  0.15  0.01  0.00  0.71  0.02  0.00
  YS02001596YS02001600    1.00   0.13  0.00  0.00  0.22  0.01  0.00  0.63  0.05  0.00
  YS02001600YS02001601    1.00   0.13  0.01  0.00  0.86  0.00  0.00  0.00  0.58  0.00
  YS02001601YS02001602    1.00   0.13  0.01  0.00  0.87  0.00  0.00  0.00  0.00  0.00
  YS02001602YS02001605    1.00   0.13  0.00  0.00  0.87  0.00  0.00  0.00  0.00  0.00
  YS02001605YS02001607    1.00   0.14  0.00  0.00  0.86  0.00  0.00  0.00  0.00  0.00
  YS02001607YS02001610    1.00   0.13  0.01  0.00  0.86  0.00  0.00  0.00  0.01  0.00
  YS02001610YS02001613    1.00   0.13  0.00  0.00  0.87  0.00  0.00  0.00  0.00  0.00
  YS02001613YS02001616    1.00   0.13  0.00  0.00  0.87  0.00  0.00  0.00  0.00  0.00
  YS02001616YS02001619    1.00   0.13  0.00  0.00  0.87  0.00  0.00  0.00  0.00  0.00
  YS02001619YS02001622    1.00   0.13  0.00  0.00  0.87  0.00  0.00  0.00  0.27  0.00
  YS02001622YS02001625    1.00   0.13  0.00  0.00  0.87  0.00  0.00  0.00  0.04  0.00
  YS02001625YS02001629    1.00   0.13  0.04  0.00  0.18  0.00  0.65  0.00  0.00  0.00
  YS02001629YS02163301    1.00   0.15  0.01  0.00  0.84  0.00  0.00  0.00  0.00  0.00
  YS02001633YS02163601    1.00   0.00  0.01  0.00  0.99  0.00  0.00  0.00  0.14  0.00
  YS02001641YS02001644    1.00   0.00  0.01  0.00  0.99  0.00  0.00  0.00  0.00  0.00
  YS02001644YS02001647    1.00   0.00  0.17  0.00  0.83  0.00  0.00  0.00  0.00  0.00
  YS02001647YS02001649    1.00   0.00  0.17  0.00  0.54  0.29  0.00  0.00  0.53  0.00
  YS02001649YS02001757    1.00   0.00  0.00  0.00  0.84  0.16  0.00  0.00  0.40  0.00
  YS02001652YS02001649    1.00   0.00  0.00  0.00  0.97  0.03  0.00  0.00  0.71  0.00
  YS02001655YS02001652    1.00   0.00  0.00  0.00  0.21  0.02  0.00  0.78  0.07  0.00
  YS02001658YS02001655    1.00   0.00  0.14  0.00  0.66  0.20  0.00  0.00  0.68  0.00
  YS02001661YS02001658    1.00   0.14  0.00  0.00  0.50  0.37  0.00  0.00  0.69  0.00
  YS02001664YS02001661    1.00   0.13  0.00  0.00  0.75  0.12  0.00  0.00  0.85  0.00
  YS02001745YS02001748    1.00   0.00  0.00  0.00  0.10  0.01  0.00  0.90  0.04  0.00
  YS02001748YS02001751    1.00   0.00  0.00  0.00  0.82  0.18  0.00  0.00  0.74  0.00
  YS02001751YS02001754    1.00   0.00  0.00  0.00  0.17  0.01  0.00  0.82  0.04  0.00
  YS02001754YS02001757    1.00   0.00  0.00  0.00  1.00  0.00  0.00  0.00  0.79  0.00
  YS02001757CaochengTiaoxuchi    1.00   0.00  0.00  0.00  0.92  0.08  0.00  0.00  0.58  0.00
  YS02001759YS02001757    1.00   0.00  0.00  0.00  0.99  0.01  0.00  0.00  0.49  0.00
  YS02001762YS02001759    1.00   0.00  0.00  0.00  1.00  0.00  0.00  0.00  0.05  0.00
  YS02001765YS02001762    1.00   0.00  0.00  0.00  1.00  0.00  0.00  0.00  0.62  0.00
  YS02001767YS02001765    1.00   0.00  0.00  0.00  1.00  0.00  0.00  0.00  0.01  0.00
  YS02001770YS02001767    1.00   0.00  0.00  0.00  1.00  0.00  0.00  0.00  0.00  0.00
  YS02001774YS02001770    1.00   0.00  0.13  0.00  0.71  0.00  0.16  0.00  0.03  0.00
  YS02001779YS02001774    1.00   0.00  0.00  0.00  1.00  0.00  0.00  0.00  0.74  0.00
  YS02001783YS02001784    1.00   0.00  0.17  0.00  0.83  0.00  0.00  0.00  0.54  0.00
  YS02001784YS02001785    1.00   0.00  0.00  0.00  1.00  0.00  0.00  0.00  0.16  0.00
  YS02001786YS02001788    1.00   0.00  0.00  0.00  0.79  0.21  0.00  0.00  0.00  0.00
  YS02001788YS02001790    1.00   0.00  0.00  0.00  0.21  0.79  0.00  0.00  0.79  0.00
  YS02001790YS02001791    1.00   0.00  0.00  0.00  0.01  0.99  0.00  0.00  0.16  0.00
  YS02001791YS02001793    1.00   0.00  0.00  0.00  0.00  1.00  0.00  0.00  0.01  0.00
  YS02001793JiankangQianchi    1.00   0.00  0.00  0.00  0.97  0.02  0.00  0.00  0.95  0.00
  YS02001882YS02001884    1.00   0.15  0.01  0.00  0.84  0.00  0.00  0.00  0.00  0.00
  YS02001884YS02001887    1.00   0.06  0.05  0.00  0.89  0.00  0.00  0.00  0.00  0.00
  YS02001887YS02001890    1.00   0.00  0.00  0.00  0.97  0.00  0.03  0.00  0.00  0.00
  YS02001890YS02001895    1.00   0.00  0.16  0.00  0.84  0.00  0.00  0.00  0.00  0.00
  YS02001895YS02001898    1.00   0.16  0.00  0.00  0.82  0.00  0.02  0.00  0.00  0.00
  YS02001898YS02001901    1.00   0.16  0.00  0.00  0.84  0.00  0.00  0.00  0.01  0.00
  YS02001901YS02001904    1.00   0.16  0.00  0.00  0.84  0.00  0.00  0.00  0.00  0.00
  YS02001904YS02001907    1.00   0.00  0.16  0.00  0.84  0.00  0.00  0.00  0.00  0.00
  YS02001907YS02006553    1.00   0.00  0.02  0.00  0.98  0.00  0.00  0.00  0.00  0.00
  YS02001910YS02001907    1.00   0.00  0.00  0.00  0.97  0.00  0.00  0.03  0.12  0.00
  YS02001915YS02001910    1.00   0.00  0.00  0.00  0.97  0.03  0.00  0.00  0.15  0.00
  YS02001918YS02001915    1.00   0.00  0.01  0.00  0.98  0.02  0.00  0.00  0.72  0.00
  YS02001920YS02001918    1.00   0.00  0.01  0.00  0.99  0.00  0.00  0.00  0.00  0.00
  YS02001923YS02001920    1.00   0.00  0.00  0.00  1.00  0.00  0.00  0.00  0.91  0.00
  YS02001926YS02001923    1.00   0.00  0.07  0.00  0.07  0.00  0.86  0.00  0.00  0.00
  YS02001929YS02001926    1.00   0.00  0.13  0.00  0.87  0.00  0.00  0.00  0.81  0.00
  YS02006553YS02006556    1.00   0.01  0.00  0.00  0.99  0.00  0.00  0.00  0.03  0.00
  YS02006556YS02006558    1.00   0.00  0.00  0.00  1.00  0.00  0.00  0.00  0.00  0.00
  YS02006558YS02006561    1.00   0.17  0.00  0.00  0.07  0.76  0.00  0.00  0.18  0.00
  YS02006561YS02001783    1.00   0.17  0.00  0.00  0.11  0.72  0.00  0.00  0.67  0.00
  YS02163301YS02001633    1.00   0.00  0.15  0.00  0.85  0.00  0.00  0.00  0.00  0.00
  YS02163601YS02164001    1.00   0.00  0.08  0.00  0.92  0.00  0.00  0.00  0.00  0.00
  YS02164001YS02001641    1.00   0.01  0.07  0.00  0.92  0.00  0.00  0.00  0.05  0.00
  
  
  *************************
  Conduit Surcharge Summary
  *************************
  
  ----------------------------------------------------------------------------
                                                           Hours        Hours 
                         --------- Hours Full --------   Above Full   Capacity
  Conduit                Both Ends  Upstream  Dnstream   Normal Flow   Limited
  ----------------------------------------------------------------------------
  WS02003072WS02003073        0.01      0.01      0.01      1.14         0.01
  WS02004404WS02004405        0.01      0.01      0.01      3.57         0.01
  WS02004405WS02004406        0.01      0.01      0.01      0.55         0.01
  WS02006109WS02006110        0.71      0.71      2.28      0.80         0.01
  WS02006110WS02006113        0.01      0.01      2.27      0.01         0.01
  WS02006111WS02006112        0.01      0.01      2.50      0.01         0.01
  WS02006112WS02006115        0.01      0.01      0.62      0.01         0.01
  WS02006228WS02006109        2.25      2.28      2.25      2.61         2.25
  WS02006229WS02006228        2.24      2.25      2.24      2.44         2.23
  WS02006230WS02006229        2.34      2.41      2.34      4.52         2.34
  WS02006231WS02006230        0.72      0.72      0.86      3.94         0.01
  WS02006232WS02006231        0.82      0.82      2.27      0.89         0.01
  WS02006234WS02006232        2.21      2.21      2.27      0.86         0.87
  WS02006235WS02006234        1.28      1.28      2.23      3.81         0.01
  WS02006238WS02006235        2.24      2.24      2.28      0.01         0.01
  WS02006239WS02006238        2.26      2.27      2.26      2.11         1.92
  WS02006240WS02006239        2.23      2.25      2.23      2.09         1.81
  WS02006242WS02006240        2.25      2.25      2.28      2.31         0.01
  WS02006243WS02006242        2.09      2.09      2.27      0.01         0.03
  WS02006245WS02006243        2.07      2.07      2.08      1.37         1.41
  WS02006247WS02006245        2.07      2.08      2.07      3.55         2.06
  WS02006248WS02006247        2.05      2.05      2.07      0.01         0.03
  WS02006249WS02006248        2.05      2.05      2.05      3.50         0.01
  WS02006251WS02006249        2.04      2.04      2.05      2.22         1.99
  WS02006252WS02006251        2.27      2.27      2.28      2.27         0.01
  WS02006256WS02006235        3.81      3.84      6.02      1.34         0.01
  YS02001580YS02001583        0.73      0.73      0.78      0.01         0.01
  YS02001583YS02001586        0.74      0.74      0.85      0.01         0.01
  YS02001586YS02001590        0.86      0.86      0.94      0.01         0.01
  YS02001590YS02001593        0.94      0.94      0.96      0.95         0.01
  YS02001593YS02001596        0.96      0.96      1.06      0.01         0.01
  YS02001596YS02001600        1.12      1.12      1.22      0.01         0.01
  YS02001600YS02001601        1.28      1.28      1.58      0.01         0.01
  YS02001601YS02001602        1.46      1.46      1.62      1.23         0.01
  YS02001602YS02001605        1.40      1.40      1.46      2.48         0.01
  YS02001605YS02001607        1.35      1.40      1.35      1.54         1.35
  YS02001607YS02001610        0.91      0.91      0.94      0.01         0.01
  YS02001610YS02001613        0.90      0.90      0.94      0.01         0.01
  YS02001613YS02001616        0.86      0.86      0.90      0.01         0.01
  YS02001616YS02001619        0.84      0.84      0.86      0.01         0.05
  YS02001619YS02001622        0.84      0.84      0.84      0.97         0.82
  YS02001622YS02001625        0.84      0.84      1.03      0.01         0.01
  YS02001625YS02001629        0.77      0.77      1.03      0.01         0.01
  YS02001629YS02163301        1.02      1.02      1.03      0.28         0.27
  YS02001633YS02163601        1.05      1.05      1.08      0.46         0.45
  YS02001641YS02001644        0.94      0.97      0.94      1.66         0.93
  YS02001644YS02001647        0.67      0.67      0.94      0.04         0.01
  YS02001647YS02001649        0.67      0.67      0.79      0.01         0.01
  YS02001649YS02001757        0.78      0.79      0.83      0.20         0.12
  YS02001652YS02001649        0.61      0.61      0.79      0.01         0.01
  YS02001655YS02001652        0.43      0.43      0.59      0.01         0.01
  YS02001658YS02001655        0.26      0.26      0.43      0.01         0.01
  YS02001661YS02001658        0.07      0.07      0.26      0.01         0.01
  YS02001664YS02001661        0.01      0.01      0.11      0.01         0.01
  YS02001745YS02001748        0.01      0.01      0.18      0.01         0.01
  YS02001748YS02001751        0.23      0.23      0.32      0.01         0.01
  YS02001751YS02001754        0.32      0.32      0.49      0.01         0.01
  YS02001754YS02001757        0.53      0.53      0.83      0.01         0.01
  YS02001757CaochengTiaoxuchi        0.72      0.83      1.76      0.49         0.30
  YS02001759YS02001757        0.74      0.74      0.83      0.01         0.03
  YS02001762YS02001759        0.71      0.71      0.74      0.01         0.02
  YS02001765YS02001762        0.67      0.67      0.71      0.01         0.01
  YS02001767YS02001765        0.63      0.63      0.67      0.01         0.03
  YS02001770YS02001767        0.63      0.63      0.63      0.64         0.46
  YS02001774YS02001770        0.60      0.60      0.69      0.01         0.01
  YS02001779YS02001774        0.48      0.48      0.69      0.01         0.01
  YS02001783YS02001784        0.60      0.63      0.60      0.82         0.60
  YS02001784YS02001785        0.48      0.60      0.48      1.11         0.48
  YS02001786YS02001788        0.01      0.48      0.01      0.96         0.01
  YS02001790YS02001791        0.01      0.01      0.01      0.58         0.01
  YS02001793JiankangQianchi        0.01      0.01      7.63      0.01         0.01
  YS02001882YS02001884        0.56      0.56      0.58      0.01         0.01
  YS02001884YS02001887        0.60      0.60      0.62      0.01         0.01
  YS02001887YS02001890        0.63      0.63      0.65      0.15         0.01
  YS02001890YS02001895        0.55      0.55      0.67      0.01         0.01
  YS02001895YS02001898        0.55      0.55      0.55      0.01         0.01
  YS02001898YS02001901        0.56      0.56      0.60      0.01         0.01
  YS02001901YS02001904        0.59      0.59      0.60      0.01         0.01
  YS02001904YS02001907        0.59      0.59      0.94      0.01         0.01
  YS02001907YS02006553        1.13      1.13      1.20      0.01         0.01
  YS02001910YS02001907        0.66      0.66      0.92      0.01         0.01
  YS02001915YS02001910        0.56      0.56      0.66      0.01         0.01
  YS02001918YS02001915        0.47      0.47      0.56      0.01         0.01
  YS02001920YS02001918        0.47      0.47      0.48      0.01         0.01
  YS02001923YS02001920        0.42      0.42      0.48      0.01         0.01
  YS02001926YS02001923        0.14      0.14      0.17      0.01         0.01
  YS02001929YS02001926        0.01      0.01      0.17      0.01         0.01
  YS02006553YS02006556        0.78      0.78      0.94      0.01         0.01
  YS02006556YS02006558        0.86      0.86      0.96      0.01         0.01
  YS02006558YS02006561        0.50      0.75      0.50      1.05         0.50
  YS02006561YS02001783        0.43      0.43      0.63      0.01         0.01
  YS02163301YS02001633        1.03      1.03      1.07      0.01         0.01
  YS02163601YS02164001        0.98      0.98      1.08      0.15         0.01
  YS02164001YS02001641        0.97      0.98      0.97      0.81         0.70
  
  
  ***************
  Pumping Summary
  ***************
  
  ---------------------------------------------------------------------------------------------------------
                                                  Min       Avg       Max     Total     Power    % Time Off
                        Percent   Number of      Flow      Flow      Flow    Volume     Usage    Pump Curve
  Pump                 Utilized   Start-Ups       LPS       LPS       LPS  10^6 ltr     Kw-hr    Low   High
  ---------------------------------------------------------------------------------------------------------
  CC-R1                   19.98           6      0.00    683.00    683.00     3.930     71.66    0.0   36.2
  CC-R2                   19.42           7      0.00    683.00    683.00     3.819     69.30    0.0   41.0
  CC-S1                   44.58          10      0.00    200.00    200.00     2.568     15.39    0.0    0.0
  CC-S2                   29.60           6      0.00    200.00    200.00     1.705     10.13    0.0    0.0
  JK-R1                    7.01          15      0.00   1000.00   1000.00     2.018     21.20    0.0    0.0
  JK-R2                    3.79          10      0.00   1000.00   1000.00     1.093      9.33    0.0    0.0
  JK-S                    16.71          13      0.00    300.00    300.00     1.444     23.73    0.0    0.0
  

  Analysis begun on:  Tue Apr 15 14:52:37 2025
  Analysis ended on:  Tue Apr 15 14:52:39 2025
  Total elapsed time: 00:00:02