
  EPA STORM WATER MANAGEMENT MODEL - VERSION 5.2 (Build 5.2.4)
  PYSWMM TOOLKIT API - VERSION v1.0 (2023-11-27)
  ------------------------------------------------------------

  WARNING 04: minimum elevation drop used for Conduit WS02004404WS02004405
  WARNING 03: negative offset ignored for Link YS02001904YS02001907
  
  ****************
  Analysis Options
  ****************
  Flow Units ............... LPS
  Process Models:
    Rainfall/Runoff ........ YES
    RDII ................... NO
    Snowmelt ............... NO
    Groundwater ............ NO
    Flow Routing ........... YES
    Ponding Allowed ........ NO
    Water Quality .......... NO
  Infiltration Method ...... HORTON
  Flow Routing Method ...... DYNWAVE
  Surcharge Method ......... EXTRAN
  Starting Date ............ 08/28/2015 08:00:00
  Ending Date .............. 08/28/2015 16:00:00
  Antecedent Dry Days ...... 8.0
  Report Time Step ......... 00:01:00
  Wet Time Step ............ 00:01:00
  Dry Time Step ............ 00:01:00
  Routing Time Step ........ 30.00 sec
  Variable Time Step ....... YES
  Maximum Trials ........... 8
  Number of Threads ........ 4
  Head Tolerance ........... 0.001500 m
  
  
  **************************        Volume         Depth
  Runoff Quantity Continuity     hectare-m            mm
  **************************     ---------       -------
  Total Precipitation ......         2.691        81.139
  Evaporation Loss .........         0.000         0.000
  Infiltration Loss ........         0.100         3.026
  Surface Runoff ...........         2.559        77.140
  Final Storage ............         0.033         0.995
  Continuity Error (%) .....        -0.027
  
  
  **************************        Volume        Volume
  Flow Routing Continuity        hectare-m      10^6 ltr
  **************************     ---------     ---------
  Dry Weather Inflow .......         0.025         0.251
  Wet Weather Inflow .......         2.560        25.596
  Groundwater Inflow .......         0.000         0.000
  RDII Inflow ..............         0.000         0.000
  External Inflow ..........         0.083         0.834
  External Outflow .........         1.645        16.446
  Flooding Loss ............         0.988         9.881
  Evaporation Loss .........         0.000         0.000
  Exfiltration Loss ........         0.000         0.000
  Initial Stored Volume ....         0.243         2.431
  Final Stored Volume ......         0.281         2.811
  Continuity Error (%) .....        -0.093
  
  
  *************************
  Highest Continuity Errors
  *************************
  Node YS02001583 (-7.29%)
  Node YS02001884 (5.02%)
  
  
  ***************************
  Time-Step Critical Elements
  ***************************
  Link WS02006252WS02006251 (54.36%)
  Link WS02004404WS02004405 (12.81%)
  Link WS02006238WS02006235 (11.21%)
  Link YS02001791YS02001793 (6.37%)
  Link WS02006235WS02006234 (3.49%)
  
  
  ********************************
  Highest Flow Instability Indexes
  ********************************
  Link WS02006113WS02006111 (47)
  Link WS02006111WS02006112 (24)
  Link WS02006256WS02006235 (14)
  Link WS02006238WS02006235 (12)
  Link WS02006252WS02006251 (12)
  
  
  *********************************
  Most Frequent Nonconverging Nodes
  *********************************
  Node CC-1 (12.03%)
  Node CC-2 (12.03%)
  Node JK-1 (12.03%)
  Node JK-2 (12.03%)
  Node WSC (12.03%)
  
  
  *************************
  Routing Time Step Summary
  *************************
  Minimum Time Step           :     0.01 sec
  Average Time Step           :     1.85 sec
  Maximum Time Step           :     6.43 sec
  % of Time in Steady State   :     0.00
  Average Iterations per Step :     3.02
  % of Steps Not Converging   :    12.03
  Time Step Frequencies       :
     30.000 - 13.228 sec      :     0.00 %
     13.228 -  5.833 sec      :     8.56 %
      5.833 -  2.572 sec      :    15.66 %
      2.572 -  1.134 sec      :    16.65 %
      1.134 -  0.500 sec      :    59.13 %
  
  
  ***************************
  Subcatchment Runoff Summary
  ***************************
  
  ------------------------------------------------------------------------------------------------------------------------------
                            Total      Total      Total      Total     Imperv       Perv      Total       Total     Peak  Runoff
                           Precip      Runon       Evap      Infil     Runoff     Runoff     Runoff      Runoff   Runoff   Coeff
  Subcatchment                 mm         mm         mm         mm         mm         mm         mm    10^6 ltr      LPS
  ------------------------------------------------------------------------------------------------------------------------------
  sub60                     81.14       0.00       0.00       1.83      70.21       7.91      78.12        1.03   734.15   0.963
  sub61                     81.14       0.00       0.00       2.64      66.22      11.16      77.38        1.42  1017.92   0.954
  sub62                     81.14       0.00       0.00       1.22      73.37       5.28      78.65        2.15  1419.97   0.969
  sub63                     81.14       0.00       0.00       4.86      56.65      18.68      75.32        1.71  1133.18   0.928
  sub64                     81.14       0.00       0.00       2.46      67.77       9.72      77.48        1.86  1160.24   0.955
  sub65                     81.14       0.00       0.00       2.13      69.34       8.42      77.77        2.14  1294.97   0.958
  sub66                     81.14       0.00       0.00       6.01      56.54      17.53      74.06        3.45  1684.61   0.913
  sub67                     81.14       0.00       0.00       1.17      73.41       5.32      78.73        1.46  1099.78   0.970
  sub68                     81.14       0.00       0.00       2.19      68.60       9.17      77.77        2.14  1462.88   0.959
  sub69                     81.14       0.00       0.00       1.95      68.86      10.23      79.09        2.93  1723.24   0.975
  sub70                     81.14       0.00       0.00       6.50      53.39      21.09      74.48        2.15   944.65   0.918
  sub71                     81.14       0.00       0.00       1.25      73.33       5.25      78.57        2.05  1254.64   0.968
  sub72                     81.14       0.00       0.00       1.11      74.06       4.57      78.64        1.08   604.31   0.969
  
  
  ******************
  Node Depth Summary
  ******************
  
  ---------------------------------------------------------------------------------
                                 Average  Maximum  Maximum  Time of Max    Reported
                                   Depth    Depth      HGL   Occurrence   Max Depth
  Node                 Type       Meters   Meters   Meters  days hr:min      Meters
  ---------------------------------------------------------------------------------
  WS02003060           JUNCTION     0.23     0.38     5.31     0  02:13        0.38
  WS02003066           JUNCTION     0.19     0.30     5.85     0  02:12        0.30
  WS02003067           JUNCTION     0.50     0.70     6.02     0  02:12        0.70
  WS02003069           JUNCTION     0.26     0.43     5.01     0  02:13        0.43
  WS02003072           JUNCTION     0.32     0.50     4.87     0  02:14        0.50
  WS02003073           JUNCTION     0.18     0.30     4.36     0  02:14        0.30
  WS02004401           JUNCTION     0.58     0.85     6.85     0  02:10        0.85
  WS02004402           JUNCTION     0.61     0.88     6.84     0  02:10        0.88
  WS02004403           JUNCTION     0.63     0.89     6.82     0  02:11        0.89
  WS02004404           JUNCTION     0.71     0.96     6.81     0  02:11        0.96
  WS02004405           JUNCTION     0.71     0.95     6.80     0  02:11        0.95
  WS02004406           JUNCTION     0.72     0.96     6.79     0  02:11        0.96
  WS02004407           JUNCTION     0.17     0.30     6.61     0  02:11        0.30
  WS02004409           JUNCTION     0.38     0.67     6.44     0  02:11        0.67
  WS02004410           JUNCTION     0.41     0.68     6.40     0  02:12        0.68
  WS02004411           JUNCTION     0.43     0.69     6.37     0  02:12        0.69
  WS02004412           JUNCTION     0.45     0.70     6.34     0  02:12        0.70
  WS02004413           JUNCTION     0.62     0.86     6.33     0  02:12        0.86
  WS02006109           JUNCTION     0.64     1.55     8.17     0  02:16        1.13
  WS02006110           JUNCTION     0.64     1.74     8.33     0  02:16        1.10
  WS02006111           JUNCTION     0.17     0.29     6.99     0  02:37        0.29
  WS02006112           JUNCTION     0.73     1.07     6.95     0  03:11        1.05
  WS02006113           JUNCTION     0.26     0.46     7.35     0  02:17        0.46
  WS02006115           JUNCTION     0.46     0.75     6.89     0  02:10        0.75
  WS02006116           JUNCTION     0.54     0.83     6.87     0  02:10        0.83
  WS02006228           JUNCTION     0.62     1.35     8.00     0  02:16        1.12
  WS02006229           JUNCTION     0.59     1.27     7.96     0  02:16        1.10
  WS02006230           JUNCTION     0.58     1.45     8.19     0  02:45        1.17
  WS02006231           JUNCTION     0.40     1.32     8.44     0  02:45        0.92
  WS02006232           JUNCTION     0.54     1.34     8.38     0  02:45        1.13
  WS02006234           JUNCTION     0.45     1.45     8.61     0  03:08        1.16
  WS02006235           JUNCTION     0.49     2.00     9.16     0  03:08        2.00
  WS02006238           JUNCTION     0.51     2.15     9.29     0  03:08        2.15
  WS02006239           JUNCTION     0.48     2.03     9.24     0  03:08        2.03
  WS02006240           JUNCTION     0.44     2.10     9.39     0  03:08        2.10
  WS02006242           JUNCTION     0.51     1.55     8.82     0  02:45        1.55
  WS02006243           JUNCTION     0.42     1.48     8.90     0  03:08        1.48
  WS02006245           JUNCTION     0.42     1.56     9.04     0  03:08        1.56
  WS02006247           JUNCTION     0.44     1.32     8.82     0  02:45        1.18
  WS02006248           JUNCTION     0.40     1.10     8.69     0  02:07        1.10
  WS02006249           JUNCTION     0.44     1.09     8.69     0  01:53        1.09
  WS02006251           JUNCTION     0.44     1.79     9.46     0  02:45        1.23
  WS02006252           JUNCTION     0.34     1.50     9.74     0  00:00        1.50
  WS02006256           JUNCTION     0.94     2.35     9.28     0  00:00        2.35
  WSF200               JUNCTION     0.17     0.29     5.52     0  02:13        0.29
  YS02001580           JUNCTION     0.10     1.05     9.59     0  01:42        1.05
  YS02001583           JUNCTION     0.14     1.11     9.60     0  01:42        0.96
  YS02001586           JUNCTION     0.21     1.13     9.30     0  01:42        1.13
  YS02001590           JUNCTION     0.31     1.40     9.26     0  01:42        1.37
  YS02001593           JUNCTION     0.24     1.35     9.21     0  01:42        1.31
  YS02001596           JUNCTION     0.33     1.80     9.22     0  02:07        1.80
  YS02001600           JUNCTION     0.38     1.87     9.00     0  01:42        1.87
  YS02001601           JUNCTION     0.58     2.06     8.90     0  01:42        2.06
  YS02001602           JUNCTION     0.49     1.87     8.77     0  01:42        1.87
  YS02001605           JUNCTION     0.46     1.78     8.68     0  02:07        1.78
  YS02001607           JUNCTION     0.46     1.68     8.53     0  02:20        1.68
  YS02001610           JUNCTION     0.50     1.68     8.48     0  01:42        1.68
  YS02001613           JUNCTION     0.46     1.67     8.51     0  02:07        1.67
  YS02001616           JUNCTION     0.39     1.61     8.52     0  01:47        1.61
  YS02001619           JUNCTION     0.37     1.61     8.54     0  01:48        1.61
  YS02001622           JUNCTION     0.35     1.59     8.50     0  02:07        1.57
  YS02001625           JUNCTION     0.62     1.78     8.38     0  01:42        1.78
  YS02001629           JUNCTION     0.48     1.85     8.40     0  01:42        1.85
  YS02001633           JUNCTION     0.56     2.08     8.53     0  01:48        2.08
  YS02001641           JUNCTION     0.55     1.97     8.41     0  01:46        1.96
  YS02001644           JUNCTION     0.54     1.92     8.35     0  01:45        1.92
  YS02001647           JUNCTION     0.33     1.82     8.43     0  01:46        1.79
  YS02001649           JUNCTION     0.37     2.05     8.44     0  01:46        2.05
  YS02001652           JUNCTION     0.26     2.16     8.76     0  01:46        1.86
  YS02001655           JUNCTION     0.21     2.20     9.05     0  01:46        1.66
  YS02001658           JUNCTION     0.15     2.30     9.44     0  01:46        1.45
  YS02001661           JUNCTION     0.17     2.46     9.86     0  01:47        1.29
  YS02001664           JUNCTION     0.07     1.01     8.94     0  01:47        0.74
  YS02001745           JUNCTION     0.08     2.35     9.87     0  01:47        0.98
  YS02001748           JUNCTION     0.14     2.27     9.35     0  01:46        1.38
  YS02001751           JUNCTION     0.18     2.20     9.08     0  01:46        1.54
  YS02001754           JUNCTION     0.23     2.20     8.81     0  01:46        1.77
  YS02001757           JUNCTION     0.40     2.21     8.47     0  01:46        2.05
  YS02001759           JUNCTION     0.33     2.21     8.57     0  01:46        2.11
  YS02001762           JUNCTION     0.32     2.15     8.55     0  01:46        2.15
  YS02001765           JUNCTION     0.30     2.10     8.55     0  01:45        2.07
  YS02001767           JUNCTION     0.30     2.03     8.52     0  01:45        2.00
  YS02001770           JUNCTION     0.31     1.95     8.44     0  01:45        1.95
  YS02001774           JUNCTION     0.38     2.05     8.47     0  01:45        2.00
  YS02001779           JUNCTION     0.22     1.68     8.37     0  01:45        1.68
  YS02001783           JUNCTION     0.25     1.49     7.63     0  01:45        1.49
  YS02001784           JUNCTION     0.26     1.29     7.36     0  01:45        1.29
  YS02001786           JUNCTION     0.22     0.98     7.01     0  01:45        0.87
  YS02001788           JUNCTION     0.16     0.62     6.60     0  01:48        0.62
  YS02001790           JUNCTION     0.19     0.72     6.37     0  01:53        0.72
  YS02001791           JUNCTION     0.12     0.44     5.91     0  01:48        0.43
  YS02001793           JUNCTION     0.06     0.30     5.13     0  02:00        0.29
  YS02001882           JUNCTION     0.32     1.74     8.45     0  01:48        1.74
  YS02001884           JUNCTION     0.42     1.82     8.44     0  01:48        1.82
  YS02001887           JUNCTION     0.49     1.92     8.46     0  01:48        1.92
  YS02001890           JUNCTION     0.52     1.81     8.32     0  01:44        1.81
  YS02001895           JUNCTION     0.29     1.57     8.32     0  01:45        1.56
  YS02001898           JUNCTION     0.30     1.56     8.30     0  01:46        1.56
  YS02001901           JUNCTION     0.42     1.71     8.32     0  02:07        1.71
  YS02001904           JUNCTION     0.40     1.64     8.27     0  01:45        1.64
  YS02001907           JUNCTION     0.72     1.96     8.25     0  01:44        1.96
  YS02001910           JUNCTION     0.52     2.01     8.52     0  01:49        1.97
  YS02001915           JUNCTION     0.33     2.00     8.72     0  01:49        1.94
  YS02001918           JUNCTION     0.19     1.81     8.88     0  01:45        1.63
  YS02001920           JUNCTION     0.27     2.14     9.15     0  01:45        1.71
  YS02001923           JUNCTION     0.15     2.03     9.29     0  01:45        1.47
  YS02001926           JUNCTION     0.18     1.90     9.35     0  01:45        1.31
  YS02001929           JUNCTION     0.11     1.78     9.47     0  01:45        1.08
  YS02006553           JUNCTION     0.72     2.04     8.33     0  01:45        2.04
  YS02006556           JUNCTION     0.69     2.11     8.43     0  01:45        2.11
  YS02006558           JUNCTION     0.74     2.19     8.46     0  01:45        2.19
  YS02006561           JUNCTION     0.16     1.16     7.82     0  01:45        1.16
  YS02163301           JUNCTION     0.51     1.95     8.46     0  01:48        1.95
  YS02163601           JUNCTION     0.60     2.07     8.47     0  01:46        2.06
  YS02164001           JUNCTION     0.53     1.98     8.44     0  01:46        1.96
  CC-1                 OUTFALL      0.00     0.00     0.00     0  00:00        0.00
  CC-2                 OUTFALL      0.00     0.00     0.00     0  00:00        0.00
  JK-1                 OUTFALL      0.00     0.00     0.00     0  00:00        0.00
  JK-2                 OUTFALL      0.00     0.00     0.00     0  00:00        0.00
  WSC                  OUTFALL      0.18     0.30     0.97     0  02:15        0.30
  CC-storage           STORAGE      0.95     1.67     7.17     0  02:26        1.67
  JK-storage           STORAGE      2.78     4.22     5.02     0  01:50        4.19
  
  
  *******************
  Node Inflow Summary
  *******************
  
  -------------------------------------------------------------------------------------------------
                                  Maximum  Maximum                  Lateral       Total        Flow
                                  Lateral    Total  Time of Max      Inflow      Inflow     Balance
                                   Inflow   Inflow   Occurrence      Volume      Volume       Error
  Node                 Type           LPS      LPS  days hr:min    10^6 ltr    10^6 ltr     Percent
  -------------------------------------------------------------------------------------------------
  WS02003060           JUNCTION     16.53   551.81     0  02:13       0.476         5.1       0.049
  WS02003066           JUNCTION      0.00   535.19     0  02:12           0        4.63       0.032
  WS02003067           JUNCTION      0.00   535.17     0  02:12           0        4.63       0.092
  WS02003069           JUNCTION      0.32   552.03     0  02:13     0.00922        5.11       0.085
  WS02003072           JUNCTION      0.00   551.93     0  02:14           0         5.1       0.147
  WS02003073           JUNCTION      1.82   553.64     0  02:14      0.0524        5.15       0.122
  WS02004401           JUNCTION      0.00   536.59     0  02:08           0        4.73       0.220
  WS02004402           JUNCTION      0.00   536.52     0  02:10           0        4.72       0.222
  WS02004403           JUNCTION      0.00   536.24     0  02:10           0        4.71       0.217
  WS02004404           JUNCTION      0.16   536.17     0  02:11     0.00467        4.71       0.188
  WS02004405           JUNCTION      0.04   536.31     0  02:11      0.0011         4.7       0.260
  WS02004406           JUNCTION      0.00   536.42     0  02:11           0        4.69       0.450
  WS02004407           JUNCTION      0.00   536.09     0  02:11           0        4.67       0.026
  WS02004409           JUNCTION      0.00   535.96     0  02:11           0        4.67       0.060
  WS02004410           JUNCTION      0.00   535.66     0  02:11           0        4.66       0.100
  WS02004411           JUNCTION      0.00   535.45     0  02:12           0        4.66       0.126
  WS02004412           JUNCTION      0.00   535.27     0  02:12           0        4.65       0.166
  WS02004413           JUNCTION      0.00   535.30     0  02:12           0        4.65       0.298
  WS02006109           JUNCTION      1.23   558.74     0  02:46      0.0354        4.79       0.204
  WS02006110           JUNCTION      0.00   559.45     0  02:45           0        4.78       0.145
  WS02006111           JUNCTION      0.00   562.17     0  02:37           0        4.77       0.014
  WS02006112           JUNCTION      0.00   542.07     0  02:37           0        4.77       0.430
  WS02006113           JUNCTION      0.00   565.99     0  02:56           0        4.77       0.041
  WS02006115           JUNCTION      0.00   555.57     0  03:11           0        4.75       0.142
  WS02006116           JUNCTION      0.00   538.52     0  02:57           0        4.74       0.096
  WS02006228           JUNCTION      0.00   556.51     0  02:46           0        4.75       0.097
  WS02006229           JUNCTION      0.00   556.49     0  02:46           0        4.76       0.097
  WS02006230           JUNCTION     10.28   587.43     0  02:35       0.296        4.76       0.114
  WS02006231           JUNCTION      0.00   581.12     0  02:55           0        4.47      -0.065
  WS02006232           JUNCTION      0.00   580.12     0  02:55           0        4.47       0.172
  WS02006234           JUNCTION      0.00   573.79     0  02:55           0        4.46      -0.225
  WS02006235           JUNCTION      0.00   563.26     0  02:55           0        4.54       0.213
  WS02006238           JUNCTION      0.00   427.30     0  03:08           0         3.7      -0.170
  WS02006239           JUNCTION      0.00   426.69     0  03:08           0        3.67      -0.123
  WS02006240           JUNCTION      0.00   424.17     0  03:08           0        3.64      -0.068
  WS02006242           JUNCTION      0.00   424.06     0  03:08           0        3.61       0.024
  WS02006243           JUNCTION      0.00   425.10     0  03:08           0         3.6       0.056
  WS02006245           JUNCTION      0.00   425.34     0  03:08           0        3.61       0.437
  WS02006247           JUNCTION      0.00   424.09     0  03:08           0        3.61      -0.002
  WS02006248           JUNCTION      0.00   422.57     0  03:08           0        3.61       0.032
  WS02006249           JUNCTION      0.00   459.02     0  00:00           0        3.81       0.455
  WS02006251           JUNCTION      0.08   407.50     0  01:53     0.00222        3.81      -0.032
  WS02006252           JUNCTION      0.00   400.00     0  00:00           0         3.8      -0.097
  WS02006256           JUNCTION      0.00   300.00     0  00:00           0        1.23      -0.863
  WSF200               JUNCTION      0.00   535.21     0  02:13           0        4.63       0.012
  YS02001580           JUNCTION      0.00   119.13     0  01:42           0     0.00433      -0.892
  YS02001583           JUNCTION      0.00   195.52     0  01:42           0      0.0149      -6.794
  YS02001586           JUNCTION    944.65   944.65     0  01:53        2.15        2.16       0.052
  YS02001590           JUNCTION      0.00   318.05     0  02:07           0        1.49      -0.033
  YS02001593           JUNCTION      0.00   318.07     0  02:18           0        1.49       0.007
  YS02001596           JUNCTION      0.00   318.02     0  02:02           0        1.49      -0.006
  YS02001600           JUNCTION      0.00   319.22     0  02:07           0        1.49       0.011
  YS02001601           JUNCTION   1723.24  2040.72     0  01:51        2.93        4.42       0.006
  YS02001602           JUNCTION      0.00   544.85     0  01:42           0        2.43       0.015
  YS02001605           JUNCTION      0.00   544.75     0  01:42           0        2.28       0.021
  YS02001607           JUNCTION      0.00   545.36     0  01:42           0        2.28       0.086
  YS02001610           JUNCTION      0.00   949.12     0  01:53           0        2.77       0.066
  YS02001613           JUNCTION      0.00   612.19     0  01:53           0        2.16       0.071
  YS02001616           JUNCTION      0.00   612.54     0  01:53           0        2.16       0.019
  YS02001619           JUNCTION   1684.61  1684.61     0  01:52        3.45        5.13       0.004
  YS02001622           JUNCTION      0.00  1053.90     0  01:53           0        4.63      -0.003
  YS02001625           JUNCTION      0.00  1482.61     0  01:53           0        4.94       0.169
  YS02001629           JUNCTION      0.00   930.73     0  01:44           0        3.73       0.006
  YS02001633           JUNCTION   1295.17  1423.59     0  01:44        2.15        5.43       0.063
  YS02001641           JUNCTION      0.00  1419.25     0  01:44           0        4.99       0.060
  YS02001644           JUNCTION   1160.28  1866.66     0  01:44        1.86        6.85       0.034
  YS02001647           JUNCTION      0.00  1865.62     0  01:44           0        5.97       0.005
  YS02001649           JUNCTION      0.00  2141.93     0  01:44           0        7.69       0.002
  YS02001652           JUNCTION      0.00  1155.53     0  01:50           0        1.72      -0.069
  YS02001655           JUNCTION      0.15  1155.67     0  01:50     0.00443        1.71      -0.124
  YS02001658           JUNCTION      0.00  1155.50     0  01:50           0        1.72      -0.077
  YS02001661           JUNCTION      0.00  1154.66     0  01:50           0        1.72       0.038
  YS02001664           JUNCTION   1133.18  1133.18     0  01:50        1.71        1.71      -0.013
  YS02001745           JUNCTION    734.16   734.16     0  01:50        1.03        1.03       0.191
  YS02001748           JUNCTION      0.04   738.65     0  01:50      0.0013        1.03      -0.316
  YS02001751           JUNCTION      0.01   739.93     0  01:50    0.000317        1.04       0.060
  YS02001754           JUNCTION      0.26   740.26     0  01:50     0.00749        1.05      -0.163
  YS02001757           JUNCTION      0.00  3612.94     0  01:49           0        11.9       0.051
  YS02001759           JUNCTION   1017.96  1520.57     0  01:46        1.42        3.15      -0.011
  YS02001762           JUNCTION      0.00   868.69     0  01:46           0        1.73       0.005
  YS02001765           JUNCTION      0.00   870.47     0  01:46           0        1.73       0.012
  YS02001767           JUNCTION      0.54   871.46     0  01:46      0.0154        1.73      -0.000
  YS02001770           JUNCTION   1420.13  1420.13     0  01:50        2.16         2.2      -0.012
  YS02001774           JUNCTION      0.00   849.27     0  01:52           0       0.492       0.204
  YS02001779           JUNCTION      0.01   849.36     0  01:52    0.000144       0.446      -0.203
  YS02001783           JUNCTION      0.00  1172.27     0  01:48           0        4.46       0.007
  YS02001784           JUNCTION      1.06  1173.27     0  01:48      0.0305        4.49       0.012
  YS02001786           JUNCTION      0.06  1173.50     0  01:48     0.00162        4.49       0.016
  YS02001788           JUNCTION      0.07  1173.51     0  01:48     0.00204         4.5       0.007
  YS02001790           JUNCTION      0.15  1183.83     0  01:48     0.00446         4.5       0.017
  YS02001791           JUNCTION      0.00  1290.26     0  01:54           0         4.5      -0.019
  YS02001793           JUNCTION      0.00  1246.73     0  01:56           0         4.5       0.005
  YS02001882           JUNCTION      0.00    56.09     0  01:43           0      0.0133       5.167
  YS02001884           JUNCTION      0.00    85.58     0  01:42           0      0.0493       5.285
  YS02001887           JUNCTION   1100.23  1100.23     0  01:50        1.48        1.51       0.294
  YS02001890           JUNCTION      0.00  1100.50     0  01:50           0        1.47       0.342
  YS02001895           JUNCTION      0.00   518.47     0  01:53           0        1.23       0.154
  YS02001898           JUNCTION      0.00   518.02     0  01:53           0        1.22      -0.004
  YS02001901           JUNCTION      0.00   518.05     0  01:53           0        1.23       0.273
  YS02001904           JUNCTION      0.00   521.17     0  01:44           0        1.23       0.227
  YS02001907           JUNCTION      0.00  2659.24     0  01:51           0        4.52       0.362
  YS02001910           JUNCTION      0.00  1856.07     0  01:51           0        3.21       0.221
  YS02001915           JUNCTION   1254.66  1855.92     0  01:51        2.06        3.26       0.042
  YS02001918           JUNCTION      0.00   609.00     0  01:52           0        1.24      -0.016
  YS02001920           JUNCTION      2.87   609.03     0  01:52      0.0827        1.22       0.073
  YS02001923           JUNCTION      0.04   605.10     0  01:52     0.00109        1.12      -0.055
  YS02001926           JUNCTION      0.05   902.78     0  01:45      0.0015         1.1      -0.036
  YS02001929           JUNCTION    604.31   656.13     0  01:45        1.08        1.09      -0.023
  YS02006553           JUNCTION      0.00   796.24     0  02:12           0         2.5       0.487
  YS02006556           JUNCTION      0.00   796.39     0  02:12           0        2.51       0.320
  YS02006558           JUNCTION   1463.76  1463.76     0  01:50        2.17        4.57       0.084
  YS02006561           JUNCTION      0.00  1172.46     0  01:48           0        4.46      -0.004
  YS02163301           JUNCTION      0.00   931.76     0  01:44           0        3.72       0.042
  YS02163601           JUNCTION      0.11  1423.30     0  01:44     0.00317        4.99       0.097
  YS02164001           JUNCTION      0.00  1422.23     0  01:44           0        4.99       0.048
  CC-1                 OUTFALL       0.00   683.00     0  00:00           0        4.27       0.000
  CC-2                 OUTFALL       0.00   683.00     0  00:00           0        3.82       0.000
  JK-1                 OUTFALL       0.00  1000.00     0  00:00           0        2.09       0.000
  JK-2                 OUTFALL       0.00  1000.00     0  00:00           0        1.13       0.000
  WSC                  OUTFALL       0.00   553.45     0  02:15           0        5.14       0.000
  CC-storage           STORAGE       0.00  3613.15     0  01:49           0        14.1      -0.089
  JK-storage           STORAGE       0.00  1249.37     0  01:55           0        4.65       0.168
  
  
  **********************
  Node Surcharge Summary
  **********************
  
  Surcharging occurs when water rises above the top of the highest conduit.
  ---------------------------------------------------------------------
                                               Max. Height   Min. Depth
                                   Hours       Above Crown    Below Rim
  Node                 Type      Surcharged         Meters       Meters
  ---------------------------------------------------------------------
  WS02006109           JUNCTION        1.65          0.734        1.086
  WS02006110           JUNCTION        0.60          0.832        1.018
  WS02006112           JUNCTION        0.62          0.068        1.612
  WS02006228           JUNCTION        1.65          0.519        1.681
  WS02006229           JUNCTION        1.65          0.467        1.983
  WS02006230           JUNCTION        0.62          0.368        1.202
  WS02006231           JUNCTION        0.74          0.611        0.919
  WS02006232           JUNCTION        1.68          0.641        0.839
  WS02006234           JUNCTION        1.13          0.729        0.511
  WS02006235           JUNCTION        1.61          1.290        0.000
  WS02006238           JUNCTION        1.65          1.430        0.000
  WS02006239           JUNCTION        1.63          1.290        0.000
  WS02006240           JUNCTION        1.65          1.390        0.000
  WS02006242           JUNCTION        1.66          0.820        0.000
  WS02006243           JUNCTION        1.64          0.770        0.000
  WS02006245           JUNCTION        1.63          0.850        0.000
  WS02006247           JUNCTION        1.63          0.608        0.152
  WS02006248           JUNCTION        1.63          0.380        0.000
  WS02006249           JUNCTION        1.62          0.390        0.000
  WS02006251           JUNCTION        0.80          0.758        0.422
  WS02006252           JUNCTION        1.85          1.100        0.000
  WS02006256           JUNCTION        6.13          2.050        0.000
  YS02001580           JUNCTION        0.77          0.450        0.000
  YS02001583           JUNCTION        0.77          0.468        0.032
  YS02001586           JUNCTION        0.91          0.510        0.000
  YS02001590           JUNCTION        0.98          0.750        0.000
  YS02001593           JUNCTION        0.99          0.733        0.107
  YS02001596           JUNCTION        1.10          1.070        0.000
  YS02001600           JUNCTION        1.25          1.190        0.000
  YS02001601           JUNCTION        1.58          1.440        0.000
  YS02001602           JUNCTION        1.50          1.270        0.000
  YS02001605           JUNCTION        1.45          1.180        0.000
  YS02001607           JUNCTION        0.97          0.680        0.000
  YS02001610           JUNCTION        1.00          0.680        0.000
  YS02001613           JUNCTION        0.96          0.671        0.029
  YS02001616           JUNCTION        0.92          0.610        0.000
  YS02001619           JUNCTION        0.90          0.610        0.000
  YS02001622           JUNCTION        0.90          0.592        0.028
  YS02001625           JUNCTION        1.09          0.780        0.000
  YS02001629           JUNCTION        0.85          0.470        0.000
  YS02001633           JUNCTION        1.12          1.060        0.000
  YS02001641           JUNCTION        1.06          0.970        0.130
  YS02001644           JUNCTION        1.04          0.920        0.000
  YS02001647           JUNCTION        0.83          0.816        0.084
  YS02001649           JUNCTION        0.96          1.050        0.000
  YS02001652           JUNCTION        0.73          1.130        0.000
  YS02001655           JUNCTION        0.52          1.200        0.000
  YS02001658           JUNCTION        0.30          1.300        0.000
  YS02001661           JUNCTION        0.12          1.390        0.000
  YS02001664           JUNCTION        0.01          0.010        1.300
  YS02001745           JUNCTION        0.01          1.350        0.000
  YS02001748           JUNCTION        0.23          1.190        0.000
  YS02001751           JUNCTION        0.39          1.200        0.000
  YS02001754           JUNCTION        0.62          1.150        0.000
  YS02001757           JUNCTION        1.03          1.210        0.000
  YS02001759           JUNCTION        0.92          1.210        0.000
  YS02001762           JUNCTION        0.89          1.150        0.000
  YS02001765           JUNCTION        0.84          1.100        0.000
  YS02001767           JUNCTION        0.81          1.030        0.000
  YS02001770           JUNCTION        0.77          0.920        0.000
  YS02001774           JUNCTION        0.87          1.050        0.000
  YS02001779           JUNCTION        0.61          0.680        0.000
  YS02001783           JUNCTION        0.65          0.689        0.911
  YS02001784           JUNCTION        0.63          0.491        0.999
  YS02001786           JUNCTION        0.52          0.182        1.248
  YS02001882           JUNCTION        0.59          0.738        0.092
  YS02001884           JUNCTION        0.61          0.765        0.105
  YS02001887           JUNCTION        0.64          0.871        0.079
  YS02001890           JUNCTION        0.66          0.760        0.000
  YS02001895           JUNCTION        0.58          0.568        0.182
  YS02001898           JUNCTION        0.58          0.532        0.208
  YS02001901           JUNCTION        0.63          0.710        0.160
  YS02001904           JUNCTION        0.62          0.639        0.211
  YS02001907           JUNCTION        0.86          0.950        0.000
  YS02001910           JUNCTION        0.68          1.012        0.088
  YS02001915           JUNCTION        0.59          1.000        0.000
  YS02001918           JUNCTION        0.51          0.810        0.000
  YS02001920           JUNCTION        0.52          1.140        0.000
  YS02001923           JUNCTION        0.20          0.820        0.000
  YS02001926           JUNCTION        0.22          0.900        0.000
  YS02001929           JUNCTION        0.08          0.780        0.000
  YS02006553           JUNCTION        0.88          1.043        0.147
  YS02006556           JUNCTION        0.77          1.075        0.275
  YS02006558           JUNCTION        0.76          1.091        0.309
  YS02006561           JUNCTION        0.47          0.355        0.795
  YS02163301           JUNCTION        1.10          0.946        0.084
  YS02163601           JUNCTION        1.15          1.072        0.008
  YS02164001           JUNCTION        1.07          0.985        0.115
  
  
  *********************
  Node Flooding Summary
  *********************
  
  Flooding refers to all water that overflows a node, whether it ponds or not.
  --------------------------------------------------------------------------
                                                             Total   Maximum
                                 Maximum   Time of Max       Flood    Ponded
                        Hours       Rate    Occurrence      Volume     Depth
  Node                 Flooded       LPS   days hr:min    10^6 ltr    Meters
  --------------------------------------------------------------------------
  WS02006235              0.01      4.45      0  03:08       0.000     0.000
  WS02006238              0.01      4.46      0  03:08       0.000     0.000
  WS02006239              0.01      2.42      0  03:08       0.000     0.000
  WS02006240              0.01      4.12      0  03:08       0.000     0.000
  WS02006242              0.01      1.99      0  02:45       0.000     0.000
  WS02006243              0.01      1.19      0  03:08       0.000     0.000
  WS02006245              0.01      0.69      0  03:08       0.000     0.000
  WS02006248              0.01     25.23      0  03:08       0.000     0.000
  WS02006249              0.77    103.45      0  01:53       0.183     0.000
  WS02006252              0.01    245.63      0  00:00       0.000     0.000
  WS02006256              1.14    293.19      0  00:00       0.371     0.000
  YS02001580              0.01     91.19      0  01:42       0.000     0.000
  YS02001586              0.64    627.04      0  01:53       0.661     0.000
  YS02001590              0.01      4.78      0  01:42       0.000     0.000
  YS02001596              0.01      0.30      0  02:07       0.000     0.000
  YS02001600              0.01      3.07      0  01:42       0.000     0.000
  YS02001601              0.82   1642.77      0  01:51       1.987     0.000
  YS02001602              0.72     62.02      0  02:19       0.147     0.000
  YS02001605              0.01      0.28      0  02:18       0.000     0.000
  YS02001607              0.01      0.70      0  02:20       0.000     0.000
  YS02001610              0.63    948.81      0  01:53       1.098     0.000
  YS02001616              0.01     10.69      0  02:07       0.000     0.000
  YS02001619              0.07     30.23      0  01:52       0.004     0.000
  YS02001625              0.60   1482.56      0  01:53       1.638     0.000
  YS02001629              0.19    406.58      0  01:49       0.142     0.000
  YS02001644              0.27   1648.29      0  01:50       0.866     0.000
  YS02001649              0.01     94.41      0  01:47       0.001     0.000
  YS02001652              0.01     55.90      0  01:46       0.000     0.000
  YS02001655              0.01    143.35      0  01:46       0.000     0.000
  YS02001658              0.01    553.50      0  01:46       0.001     0.000
  YS02001661              0.01    148.06      0  01:47       0.000     0.000
  YS02001745              0.01    130.78      0  01:47       0.000     0.000
  YS02001748              0.01    424.20      0  01:46       0.001     0.000
  YS02001751              0.01    343.16      0  01:46       0.000     0.000
  YS02001754              0.01     75.92      0  01:46       0.000     0.000
  YS02001757              0.01     21.88      0  01:47       0.000     0.000
  YS02001759              0.01      3.50      0  01:46       0.000     0.000
  YS02001762              0.01     13.20      0  01:46       0.000     0.000
  YS02001765              0.01     56.76      0  01:45       0.000     0.000
  YS02001767              0.01    145.12      0  01:45       0.000     0.000
  YS02001770              0.07    151.27      0  01:45       0.016     0.000
  YS02001774              0.01     62.26      0  01:45       0.000     0.000
  YS02001779              0.24    849.32      0  01:52       0.426     0.000
  YS02001890              0.23    583.97      0  01:50       0.239     0.000
  YS02001907              0.45   2659.13      0  01:51       2.086     0.000
  YS02001915              0.01      4.55      0  01:49       0.000     0.000
  YS02001918              0.01    188.09      0  01:45       0.003     0.000
  YS02001920              0.01     16.80      0  01:45       0.000     0.000
  YS02001923              0.01    205.67      0  01:45       0.001     0.000
  YS02001926              0.01    806.72      0  01:45       0.003     0.000
  YS02001929              0.01    259.53      0  01:45       0.002     0.000
  
  
  **********************
  Storage Volume Summary
  **********************
  
  ------------------------------------------------------------------------------------------------
                         Average    Avg   Evap  Exfil     Maximum    Max    Time of Max    Maximum
                          Volume   Pcnt   Pcnt   Pcnt      Volume   Pcnt     Occurrence    Outflow
  Storage Unit           1000 m³   Full   Loss   Loss     1000 m³   Full    days hr:min        LPS
  ------------------------------------------------------------------------------------------------
  CC-storage               2.645   41.3    0.0    0.0       4.667   72.8       0  02:26    1783.53
  JK-storage               0.140   47.9    0.0    0.0       0.212   72.8       0  01:50    2300.00
  
  
  ***********************
  Outfall Loading Summary
  ***********************
  
  -----------------------------------------------------------
                         Flow       Avg       Max       Total
                         Freq      Flow      Flow      Volume
  Outfall Node           Pcnt       LPS       LPS    10^6 ltr
  -----------------------------------------------------------
  CC-1                  23.00    683.00    683.00       4.269
  CC-2                  21.65    683.00    683.00       3.819
  JK-1                   8.83   1000.00   1000.00       2.087
  JK-2                   4.85   1000.00   1000.00       1.129
  WSC                   99.96    241.55    553.45       5.142
  -----------------------------------------------------------
  System                31.66   3607.55   3919.45      16.446
  
  
  ********************
  Link Flow Summary
  ********************
  
  -----------------------------------------------------------------------------
                                 Maximum  Time of Max   Maximum    Max/    Max/
                                  |Flow|   Occurrence   |Veloc|    Full    Full
  Link                 Type          LPS  days hr:min     m/sec    Flow   Depth
  -----------------------------------------------------------------------------
  1                    CONDUIT    553.45     0  02:15      2.82    0.19    0.30
  WS02003060WS02003069 CONDUIT    551.71     0  02:13      1.64    0.22    0.34
  WS02003066WSF200     CONDUIT    535.21     0  02:13      2.85    0.09    0.22
  WS02003067WS02003066 CONDUIT    535.19     0  02:12      1.21    0.17    0.42
  WS02003069WS02003072 CONDUIT    551.93     0  02:14      1.37    0.27    0.39
  WS02003072WS02003073 CONDUIT    551.82     0  02:14      1.43    1.19    0.37
  WS02004401WS02004402 CONDUIT    536.52     0  02:10      1.23    0.64    0.86
  WS02004402WS02004403 CONDUIT    536.24     0  02:10      1.24    0.77    0.88
  WS02004403WS02004404 CONDUIT    536.01     0  02:11      1.17    0.39    0.93
  WS02004404WS02004405 CONDUIT    536.27     0  02:11      1.43    5.25    0.96
  WS02004405WS02004406 CONDUIT    536.42     0  02:11      1.39    1.06    0.96
  WS02004406WS02004407 CONDUIT    536.09     0  02:11      1.04    0.24    0.63
  WS02004407WS02004409 CONDUIT    535.96     0  02:11      1.49    0.19    0.48
  WS02004409WS02004410 CONDUIT    535.66     0  02:11      0.98    0.69    0.67
  WS02004410WS02004411 CONDUIT    535.45     0  02:12      0.93    0.73    0.69
  WS02004411WS02004412 CONDUIT    535.27     0  02:12      0.92    0.76    0.69
  WS02004412WS02004413 CONDUIT    535.30     0  02:12      0.88    0.36    0.78
  WS02004413WS02003067 CONDUIT    535.17     0  02:12      1.11    0.23    0.59
  WS02006109WS02006110 CONDUIT    559.45     0  02:45      1.11    1.08    1.00
  WS02006110WS02006113 CONDUIT    565.99     0  02:56      1.37    0.51    0.78
  WS02006111WS02006112 CONDUIT    542.07     0  02:37      1.96    0.26    0.67
  WS02006112WS02006115 CONDUIT    555.57     0  03:11      0.80    0.33    0.87
  WS02006113WS02006111 CONDUIT    562.17     0  02:37      2.47    0.67    0.46
  WS02006115WS02006116 CONDUIT    538.52     0  02:57      1.19    0.69    0.76
  WS02006116WS02004401 CONDUIT    536.59     0  02:08      1.22    0.74    0.84
  WS02006228WS02006109 CONDUIT    557.51     0  02:46      1.11    2.44    1.00
  WS02006229WS02006228 CONDUIT    556.51     0  02:46      1.14    1.84    1.00
  WS02006230WS02006229 CONDUIT    556.49     0  02:46      1.45   12.38    1.00
  WS02006231WS02006230 CONDUIT    577.15     0  02:35      1.57    8.75    1.00
  WS02006232WS02006231 CONDUIT    581.12     0  02:55      1.52    1.22    1.00
  WS02006234WS02006232 CONDUIT    580.12     0  02:55      1.51    1.17    1.00
  WS02006235WS02006234 CONDUIT    573.79     0  02:55      1.49    6.05    1.00
  WS02006238WS02006235 CONDUIT    452.02     0  03:08      1.45    1.01    1.00
  WS02006239WS02006238 CONDUIT    427.30     0  03:08      1.11    1.37    1.00
  WS02006240WS02006239 CONDUIT    426.69     0  03:08      1.24    1.34    1.00
  WS02006242WS02006240 CONDUIT    424.17     0  03:08      1.13    1.68    1.00
  WS02006243WS02006242 CONDUIT    424.06     0  03:08      1.40    0.91    1.00
  WS02006245WS02006243 CONDUIT    425.10     0  03:08      1.45    1.26    1.00
  WS02006247WS02006245 CONDUIT    425.34     0  03:08      1.43    3.37    1.00
  WS02006248WS02006247 CONDUIT    424.09     0  03:08      1.44    0.92    1.00
  WS02006249WS02006248 CONDUIT    422.57     0  03:08      1.39    2.31    1.00
  WS02006251WS02006249 CONDUIT    459.02     0  00:00      1.99    1.32    1.00
  WS02006252WS02006251 CONDUIT    407.43     0  01:53     25.30    1.50    1.00
  WS02006256WS02006235 CONDUIT    288.91     0  00:00      4.23    3.06    1.00
  WSF200WS02003060     CONDUIT    535.28     0  02:13      2.06    0.12    0.28
  YS02001580YS02001583 CONDUIT    119.13     0  01:42      0.75    0.46    1.00
  YS02001583YS02001586 CONDUIT    178.74     0  01:42      0.76    0.27    1.00
  YS02001586YS02001590 CONDUIT    318.05     0  02:07      1.26    0.56    1.00
  YS02001590YS02001593 CONDUIT    318.07     0  02:18      1.12    2.00    1.00
  YS02001593YS02001596 CONDUIT    318.02     0  02:02      1.75    0.50    1.00
  YS02001596YS02001600 CONDUIT    319.22     0  02:07      1.24    0.62    1.00
  YS02001600YS02001601 CONDUIT    318.40     0  02:07      1.13    0.55    1.00
  YS02001601YS02001602 CONDUIT    544.85     0  01:42      1.93    1.97    1.00
  YS02001602YS02001605 CONDUIT    544.75     0  01:42      1.93   11.53    1.00
  YS02001605YS02001607 CONDUIT    545.36     0  01:42      1.93    2.99    1.00
  YS02001607YS02001610 CONDUIT    540.33     0  01:42      0.69    0.51    1.00
  YS02001610YS02001613 CONDUIT    612.92     0  01:53      0.78    0.71    1.00
  YS02001613YS02001616 CONDUIT    612.19     0  01:53      0.78    0.52    1.00
  YS02001616YS02001619 CONDUIT    612.54     0  01:53      0.78    1.06    1.00
  YS02001619YS02001622 CONDUIT   1053.90     0  01:53      1.34    1.55    1.00
  YS02001622YS02001625 CONDUIT   1053.57     0  01:53      1.34    0.56    1.00
  YS02001625YS02001629 CONDUIT    930.73     0  01:44      1.19    0.44    1.00
  YS02001629YS02163301 CONDUIT    931.76     0  01:44      1.19    1.15    1.00
  YS02001633YS02163601 CONDUIT   1423.19     0  01:44      1.81    1.49    1.00
  YS02001641YS02001644 CONDUIT   1417.58     0  01:44      1.80    4.58    1.00
  YS02001644YS02001647 CONDUIT   1865.62     0  01:44      2.41    1.10    1.00
  YS02001647YS02001649 CONDUIT   1872.92     0  01:44      2.40    0.99    1.00
  YS02001649YS02001757 CONDUIT   2143.03     0  01:44      2.73    1.30    1.00
  YS02001652YS02001649 CONDUIT   1156.35     0  01:50      1.47    0.57    1.00
  YS02001655YS02001652 CONDUIT   1155.53     0  01:50      1.47    0.56    1.00
  YS02001658YS02001655 CONDUIT   1155.52     0  01:50      1.97    0.49    1.00
  YS02001661YS02001658 CONDUIT   1155.50     0  01:50      2.40    0.45    1.00
  YS02001664YS02001661 CONDUIT   1154.66     0  01:50      2.46    0.36    1.00
  YS02001745YS02001748 CONDUIT    738.60     0  01:50      2.32    0.28    1.00
  YS02001748YS02001751 CONDUIT    739.92     0  01:50      1.79    0.37    1.00
  YS02001751YS02001754 CONDUIT    740.00     0  01:50      1.52    0.36    1.00
  YS02001754YS02001757 CONDUIT    740.41     0  01:50      0.94    0.30    1.00
  YS02001757CaochengTiaoxuchi CONDUIT   3613.15     0  01:49      4.78    1.56    1.00
  YS02001759YS02001757 CONDUIT   1522.58     0  01:46      1.94    1.08    1.00
  YS02001762YS02001759 CONDUIT    867.91     0  01:46      1.11    1.00    1.00
  YS02001765YS02001762 CONDUIT    868.69     0  01:46      1.11    0.81    1.00
  YS02001767YS02001765 CONDUIT    870.47     0  01:46      1.11    1.09    1.00
  YS02001770YS02001767 CONDUIT    870.93     0  01:46      1.11    3.45    1.00
  YS02001774YS02001770 CONDUIT    849.27     0  01:52      1.08    0.54    1.00
  YS02001779YS02001774 CONDUIT    849.35     0  01:52      1.08    0.43    1.00
  YS02001783YS02001784 CONDUIT   1172.21     0  01:48      2.33    1.62    1.00
  YS02001784YS02001785 CONDUIT   1173.44     0  01:48      2.33    2.73    1.00
  YS02001786YS02001788 CONDUIT   1173.44     0  01:48      2.50    2.26    0.89
  YS02001788YS02001790 CONDUIT   1183.68     0  01:48      2.72    0.87    0.84
  YS02001790YS02001791 CONDUIT   1290.26     0  01:54      3.43    1.40    0.70
  YS02001791YS02001793 CONDUIT   1246.73     0  01:56      6.72    0.54    0.45
  YS02001793JiankangQianchi CONDUIT   1249.37     0  01:55      2.49    0.10    0.65
  YS02001882YS02001884 CONDUIT     56.09     0  01:43      0.15    0.06    1.00
  YS02001884YS02001887 CONDUIT     85.58     0  01:42      0.12    0.11    1.00
  YS02001887YS02001890 CONDUIT   1100.50     0  01:50      1.40    1.88    1.00
  YS02001890YS02001895 CONDUIT    518.47     0  01:53      0.66    0.24    1.00
  YS02001895YS02001898 CONDUIT    518.02     0  01:53      0.66    0.90    1.00
  YS02001898YS02001901 CONDUIT    518.05     0  01:53      0.66    0.33    1.00
  YS02001901YS02001904 CONDUIT    521.17     0  01:44      0.66    0.81    1.00
  YS02001904YS02001907 CONDUIT    525.65     0  01:44      0.67    0.18    1.00
  YS02001907YS02006553 CONDUIT    796.24     0  02:12      0.88    0.94    1.00
  YS02001910YS02001907 CONDUIT   1856.22     0  01:51      2.36    1.05    1.00
  YS02001915YS02001910 CONDUIT   1856.07     0  01:51      2.36    0.92    1.00
  YS02001918YS02001915 CONDUIT    609.78     0  01:52      0.78    0.34    1.00
  YS02001920YS02001918 CONDUIT    609.00     0  01:52      0.78    0.59    1.00
  YS02001923YS02001920 CONDUIT    606.16     0  01:52      0.77    0.27    1.00
  YS02001926YS02001923 CONDUIT    605.06     0  01:52      0.98    0.86    1.00
  YS02001929YS02001926 CONDUIT    604.71     0  01:52      1.17    0.29    1.00
  YS02006553YS02006556 CONDUIT    796.39     0  02:12      1.01    0.68    1.00
  YS02006556YS02006558 CONDUIT    797.25     0  02:12      1.02    0.63    1.00
  YS02006558YS02006561 CONDUIT   1172.46     0  01:48      4.15    2.59    1.00
  YS02006561YS02001783 CONDUIT   1172.27     0  01:48      2.33    0.61    1.00
  YS02163301YS02001633 CONDUIT    932.91     0  01:44      1.19    0.88    1.00
  YS02163601YS02164001 CONDUIT   1422.23     0  01:44      1.81    1.26    1.00
  YS02164001YS02001641 CONDUIT   1419.25     0  01:44      1.81    1.94    1.00
  CC-R1                PUMP       683.00     0  00:00              1.00
  CC-R2                PUMP       683.00     0  00:00              1.00
  CC-S1                PUMP       200.00     0  00:00              1.00
  CC-S2                PUMP       200.00     0  00:00              1.00
  JK-R1                PUMP      1000.00     0  00:00              1.00
  JK-R2                PUMP      1000.00     0  00:00              1.00
  JK-S                 PUMP       300.00     0  00:00              1.00
  
  
  ***************************
  Flow Classification Summary
  ***************************
  
  -------------------------------------------------------------------------------------
                      Adjusted    ---------- Fraction of Time in Flow Class ---------- 
                       /Actual         Up    Down  Sub   Sup   Up    Down  Norm  Inlet 
  Conduit               Length    Dry  Dry   Dry   Crit  Crit  Crit  Crit  Ltd   Ctrl  
  -------------------------------------------------------------------------------------
  1                       1.00   0.00  0.00  0.00  0.00  1.00  0.00  0.00  0.39  0.00
  WS02003060WS02003069    1.00   0.00  0.00  0.00  0.97  0.03  0.00  0.00  0.74  0.00
  WS02003066WSF200        1.00   0.06  0.00  0.00  0.00  0.94  0.00  0.00  0.84  0.00
  WS02003067WS02003066    1.00   0.05  0.01  0.00  0.94  0.00  0.00  0.00  0.00  0.00
  WS02003069WS02003072    1.00   0.00  0.00  0.00  0.99  0.01  0.00  0.00  0.78  0.00
  WS02003072WS02003073    1.00   0.00  0.00  0.00  0.00  0.00  0.00  1.00  0.00  0.00
  WS02004401WS02004402    1.00   0.02  0.00  0.00  0.98  0.00  0.00  0.00  0.00  0.00
  WS02004402WS02004403    1.00   0.02  0.00  0.00  0.98  0.00  0.00  0.00  0.00  0.00
  WS02004403WS02004404    1.00   0.00  0.03  0.00  0.97  0.00  0.00  0.00  0.00  0.00
  WS02004404WS02004405    1.00   0.00  0.00  0.00  1.00  0.00  0.00  0.00  0.01  0.00
  WS02004405WS02004406    1.00   0.00  0.00  0.00  1.00  0.00  0.00  0.00  0.00  0.00
  WS02004406WS02004407    1.00   0.00  0.03  0.00  0.96  0.00  0.00  0.00  0.00  0.00
  WS02004407WS02004409    1.00   0.04  0.00  0.00  0.96  0.01  0.00  0.00  0.96  0.00
  WS02004409WS02004410    1.00   0.04  0.00  0.00  0.96  0.00  0.00  0.00  0.00  0.00
  WS02004410WS02004411    1.00   0.04  0.00  0.00  0.96  0.00  0.00  0.00  0.00  0.00
  WS02004411WS02004412    1.00   0.04  0.00  0.00  0.96  0.00  0.00  0.00  0.00  0.00
  WS02004412WS02004413    1.00   0.04  0.00  0.00  0.96  0.00  0.00  0.00  0.00  0.00
  WS02004413WS02003067    1.00   0.04  0.01  0.00  0.00  0.00  0.95  0.00  0.00  0.00
  WS02006109WS02006110    1.00   0.00  0.01  0.00  0.98  0.00  0.01  0.00  0.00  0.00
  WS02006110WS02006113    1.00   0.01  0.01  0.00  0.98  0.00  0.00  0.00  0.00  0.00
  WS02006111WS02006112    1.00   0.02  0.00  0.00  0.98  0.00  0.00  0.00  0.98  0.00
  WS02006112WS02006115    1.00   0.02  0.00  0.00  0.97  0.00  0.00  0.00  0.00  0.00
  WS02006113WS02006111    1.00   0.02  0.00  0.00  0.00  0.98  0.00  0.00  0.14  0.00
  WS02006115WS02006116    1.00   0.02  0.00  0.00  0.97  0.00  0.00  0.01  0.00  0.00
  WS02006116WS02004401    1.00   0.02  0.00  0.00  0.98  0.00  0.00  0.00  0.00  0.00
  WS02006228WS02006109    1.00   0.00  0.00  0.00  1.00  0.00  0.00  0.00  0.00  0.00
  WS02006229WS02006228    1.00   0.00  0.00  0.00  0.99  0.00  0.00  0.01  0.00  0.00
  WS02006230WS02006229    1.00   0.00  0.00  0.00  0.99  0.00  0.00  0.01  0.00  0.00
  WS02006231WS02006230    1.00   0.00  0.00  0.00  0.22  0.00  0.78  0.00  0.00  0.00
  WS02006232WS02006231    1.00   0.00  0.00  0.00  0.99  0.00  0.01  0.00  0.00  0.00
  WS02006234WS02006232    1.00   0.00  0.00  0.00  1.00  0.00  0.00  0.00  0.13  0.00
  WS02006235WS02006234    1.00   0.00  0.00  0.00  0.80  0.00  0.20  0.00  0.00  0.00
  WS02006238WS02006235    1.00   0.00  0.00  0.00  1.00  0.00  0.00  0.00  0.00  0.00
  WS02006239WS02006238    1.00   0.00  0.00  0.00  1.00  0.00  0.00  0.00  0.24  0.00
  WS02006240WS02006239    1.00   0.00  0.00  0.00  0.64  0.00  0.00  0.36  0.03  0.00
  WS02006242WS02006240    1.00   0.00  0.00  0.00  0.97  0.00  0.02  0.00  0.00  0.00
  WS02006243WS02006242    1.00   0.00  0.00  0.00  0.98  0.00  0.00  0.02  0.50  0.00
  WS02006245WS02006243    1.00   0.00  0.00  0.00  0.75  0.00  0.00  0.25  0.01  0.00
  WS02006247WS02006245    1.00   0.00  0.00  0.00  0.97  0.00  0.00  0.03  0.00  0.00
  WS02006248WS02006247    1.00   0.00  0.00  0.00  0.98  0.00  0.00  0.02  0.32  0.00
  WS02006249WS02006248    1.00   0.00  0.00  0.00  0.50  0.00  0.50  0.00  0.00  0.00
  WS02006251WS02006249    1.00   0.00  0.00  0.00  0.99  0.01  0.00  0.00  0.52  0.00
  WS02006252WS02006251    1.00   0.00  0.55  0.00  0.10  0.00  0.35  0.00  0.00  0.00
  WS02006256WS02006235    1.00   0.00  0.00  0.00  0.99  0.01  0.00  0.00  0.00  0.00
  WSF200WS02003060        1.00   0.00  0.06  0.00  0.36  0.58  0.00  0.00  0.53  0.00
  YS02001580YS02001583    1.00   0.21  0.57  0.00  0.21  0.00  0.00  0.00  0.67  0.00
  YS02001583YS02001586    1.00   0.42  0.31  0.00  0.27  0.00  0.00  0.00  0.67  0.00
  YS02001586YS02001590    1.00   0.13  0.00  0.00  0.43  0.04  0.00  0.40  0.34  0.00
  YS02001590YS02001593    1.00   0.13  0.01  0.00  0.14  0.00  0.73  0.00  0.00  0.00
  YS02001593YS02001596    1.00   0.13  0.00  0.00  0.16  0.01  0.00  0.70  0.02  0.00
  YS02001596YS02001600    1.00   0.14  0.00  0.00  0.21  0.01  0.00  0.64  0.04  0.00
  YS02001600YS02001601    1.00   0.13  0.01  0.00  0.86  0.00  0.00  0.00  0.60  0.00
  YS02001601YS02001602    1.00   0.13  0.01  0.00  0.87  0.00  0.00  0.00  0.00  0.00
  YS02001602YS02001605    1.00   0.13  0.00  0.00  0.86  0.00  0.00  0.00  0.00  0.00
  YS02001605YS02001607    1.00   0.14  0.00  0.00  0.86  0.00  0.00  0.00  0.00  0.00
  YS02001607YS02001610    1.00   0.13  0.01  0.00  0.86  0.00  0.00  0.00  0.01  0.00
  YS02001610YS02001613    1.00   0.13  0.00  0.00  0.87  0.00  0.00  0.00  0.00  0.00
  YS02001613YS02001616    1.00   0.13  0.00  0.00  0.87  0.00  0.00  0.00  0.00  0.00
  YS02001616YS02001619    1.00   0.13  0.00  0.00  0.87  0.00  0.00  0.00  0.00  0.00
  YS02001619YS02001622    1.00   0.13  0.00  0.00  0.87  0.00  0.00  0.00  0.29  0.00
  YS02001622YS02001625    1.00   0.13  0.00  0.00  0.87  0.00  0.00  0.00  0.04  0.00
  YS02001625YS02001629    1.00   0.13  0.04  0.00  0.18  0.00  0.65  0.00  0.00  0.00
  YS02001629YS02163301    1.00   0.15  0.01  0.00  0.84  0.00  0.00  0.00  0.00  0.00
  YS02001633YS02163601    1.00   0.00  0.01  0.00  0.99  0.00  0.00  0.00  0.15  0.00
  YS02001641YS02001644    1.00   0.00  0.01  0.00  0.99  0.00  0.00  0.00  0.00  0.00
  YS02001644YS02001647    1.00   0.00  0.17  0.00  0.83  0.00  0.00  0.00  0.00  0.00
  YS02001647YS02001649    1.00   0.00  0.17  0.00  0.58  0.25  0.00  0.00  0.56  0.00
  YS02001649YS02001757    1.00   0.00  0.00  0.00  0.84  0.15  0.00  0.00  0.44  0.00
  YS02001652YS02001649    1.00   0.00  0.00  0.00  0.97  0.03  0.00  0.00  0.73  0.00
  YS02001655YS02001652    1.00   0.00  0.00  0.00  0.21  0.01  0.00  0.78  0.05  0.00
  YS02001658YS02001655    1.00   0.00  0.14  0.00  0.68  0.18  0.00  0.00  0.66  0.00
  YS02001661YS02001658    1.00   0.14  0.00  0.00  0.52  0.34  0.00  0.00  0.70  0.00
  YS02001664YS02001661    1.00   0.13  0.00  0.00  0.77  0.11  0.00  0.00  0.84  0.00
  YS02001745YS02001748    1.00   0.00  0.00  0.00  0.12  0.01  0.00  0.87  0.05  0.00
  YS02001748YS02001751    1.00   0.00  0.00  0.00  0.85  0.15  0.00  0.00  0.77  0.00
  YS02001751YS02001754    1.00   0.00  0.00  0.00  0.20  0.00  0.00  0.80  0.04  0.00
  YS02001754YS02001757    1.00   0.00  0.00  0.00  1.00  0.00  0.00  0.00  0.79  0.00
  YS02001757CaochengTiaoxuchi    1.00   0.00  0.00  0.00  0.97  0.03  0.00  0.00  0.51  0.00
  YS02001759YS02001757    1.00   0.00  0.00  0.00  0.99  0.01  0.00  0.00  0.54  0.00
  YS02001762YS02001759    1.00   0.00  0.00  0.00  1.00  0.00  0.00  0.00  0.05  0.00
  YS02001765YS02001762    1.00   0.00  0.00  0.00  1.00  0.00  0.00  0.00  0.71  0.00
  YS02001767YS02001765    1.00   0.00  0.00  0.00  1.00  0.00  0.00  0.00  0.00  0.00
  YS02001770YS02001767    1.00   0.00  0.00  0.00  1.00  0.00  0.00  0.00  0.00  0.00
  YS02001774YS02001770    1.00   0.00  0.13  0.00  0.70  0.00  0.17  0.00  0.03  0.00
  YS02001779YS02001774    1.00   0.00  0.00  0.00  1.00  0.00  0.00  0.00  0.76  0.00
  YS02001783YS02001784    1.00   0.00  0.17  0.00  0.83  0.00  0.00  0.00  0.55  0.00
  YS02001784YS02001785    1.00   0.00  0.00  0.00  1.00  0.00  0.00  0.00  0.16  0.00
  YS02001786YS02001788    1.00   0.00  0.00  0.00  0.80  0.20  0.00  0.00  0.00  0.00
  YS02001788YS02001790    1.00   0.00  0.00  0.00  0.21  0.79  0.00  0.00  0.80  0.00
  YS02001790YS02001791    1.00   0.00  0.00  0.00  0.01  0.99  0.00  0.00  0.16  0.00
  YS02001791YS02001793    1.00   0.00  0.00  0.00  0.00  1.00  0.00  0.00  0.01  0.00
  YS02001793JiankangQianchi    1.00   0.00  0.00  0.00  0.97  0.03  0.00  0.00  0.95  0.00
  YS02001882YS02001884    1.00   0.15  0.01  0.00  0.84  0.00  0.00  0.00  0.00  0.00
  YS02001884YS02001887    1.00   0.06  0.05  0.00  0.89  0.00  0.00  0.00  0.00  0.00
  YS02001887YS02001890    1.00   0.00  0.00  0.00  0.97  0.00  0.03  0.00  0.00  0.00
  YS02001890YS02001895    1.00   0.00  0.16  0.00  0.84  0.00  0.00  0.00  0.00  0.00
  YS02001895YS02001898    1.00   0.16  0.00  0.00  0.82  0.00  0.02  0.00  0.00  0.00
  YS02001898YS02001901    1.00   0.16  0.00  0.00  0.84  0.00  0.00  0.00  0.01  0.00
  YS02001901YS02001904    1.00   0.16  0.00  0.00  0.84  0.00  0.00  0.00  0.00  0.00
  YS02001904YS02001907    1.00   0.00  0.16  0.00  0.84  0.00  0.00  0.00  0.00  0.00
  YS02001907YS02006553    1.00   0.00  0.02  0.00  0.98  0.00  0.00  0.00  0.00  0.00
  YS02001910YS02001907    1.00   0.00  0.00  0.00  0.97  0.00  0.00  0.03  0.12  0.00
  YS02001915YS02001910    1.00   0.00  0.00  0.00  0.97  0.03  0.00  0.00  0.15  0.00
  YS02001918YS02001915    1.00   0.00  0.01  0.00  0.98  0.02  0.00  0.00  0.73  0.00
  YS02001920YS02001918    1.00   0.00  0.01  0.00  0.99  0.00  0.00  0.00  0.00  0.00
  YS02001923YS02001920    1.00   0.00  0.00  0.00  1.00  0.00  0.00  0.00  0.91  0.00
  YS02001926YS02001923    1.00   0.00  0.07  0.00  0.07  0.00  0.85  0.00  0.00  0.00
  YS02001929YS02001926    1.00   0.00  0.13  0.00  0.87  0.00  0.00  0.00  0.81  0.00
  YS02006553YS02006556    1.00   0.01  0.00  0.00  0.99  0.00  0.00  0.00  0.03  0.00
  YS02006556YS02006558    1.00   0.00  0.00  0.00  1.00  0.00  0.00  0.00  0.00  0.00
  YS02006558YS02006561    1.00   0.17  0.00  0.00  0.07  0.76  0.00  0.00  0.18  0.00
  YS02006561YS02001783    1.00   0.17  0.00  0.00  0.10  0.73  0.00  0.00  0.68  0.00
  YS02163301YS02001633    1.00   0.00  0.15  0.00  0.85  0.00  0.00  0.00  0.00  0.00
  YS02163601YS02164001    1.00   0.00  0.08  0.00  0.92  0.00  0.00  0.00  0.00  0.00
  YS02164001YS02001641    1.00   0.01  0.07  0.00  0.92  0.00  0.00  0.00  0.05  0.00
  
  
  *************************
  Conduit Surcharge Summary
  *************************
  
  ----------------------------------------------------------------------------
                                                           Hours        Hours 
                         --------- Hours Full --------   Above Full   Capacity
  Conduit                Both Ends  Upstream  Dnstream   Normal Flow   Limited
  ----------------------------------------------------------------------------
  WS02003072WS02003073        0.01      0.01      0.01      1.25         0.01
  WS02004404WS02004405        0.01      0.01      0.01      3.48         0.01
  WS02004405WS02004406        0.01      0.01      0.01      0.51         0.01
  WS02006109WS02006110        0.60      0.60      1.67      0.71         0.01
  WS02006110WS02006113        0.01      0.01      1.66      0.01         0.01
  WS02006111WS02006112        0.01      0.01      1.81      0.01         0.01
  WS02006112WS02006115        0.01      0.01      0.62      0.01         0.01
  WS02006228WS02006109        1.65      1.68      1.65      2.09         1.65
  WS02006229WS02006228        1.65      1.65      1.65      1.82         1.64
  WS02006230WS02006229        1.71      1.75      1.71      4.17         1.71
  WS02006231WS02006230        0.62      0.62      0.78      3.81         0.01
  WS02006232WS02006231        0.73      0.73      1.68      0.80         0.01
  WS02006234WS02006232        1.59      1.59      1.68      0.78         0.79
  WS02006235WS02006234        1.13      1.13      1.60      3.65         0.02
  WS02006238WS02006235        1.63      1.63      1.68      0.01         0.01
  WS02006239WS02006238        1.65      1.66      1.65      1.73         1.47
  WS02006240WS02006239        1.63      1.65      1.63      1.73         1.41
  WS02006242WS02006240        1.65      1.65      1.68      1.82         0.01
  WS02006243WS02006242        1.64      1.64      1.66      0.01         0.05
  WS02006245WS02006243        1.63      1.63      1.64      1.08         1.04
  WS02006247WS02006245        1.63      1.64      1.63      3.35         1.62
  WS02006248WS02006247        1.63      1.63      1.63      0.01         0.05
  WS02006249WS02006248        1.62      1.63      1.62      3.29         0.01
  WS02006251WS02006249        1.62      1.62      1.62      1.79         1.54
  WS02006252WS02006251        1.84      1.84      1.85      1.84         0.01
  WS02006256WS02006235        3.65      3.69      6.10      1.15         0.01
  YS02001580YS02001583        0.77      0.77      0.82      0.01         0.01
  YS02001583YS02001586        0.77      0.77      0.91      0.01         0.01
  YS02001586YS02001590        0.91      0.91      0.98      0.01         0.01
  YS02001590YS02001593        0.99      0.99      1.00      1.05         0.01
  YS02001593YS02001596        1.00      1.00      1.10      0.01         0.01
  YS02001596YS02001600        1.14      1.14      1.25      0.01         0.01
  YS02001600YS02001601        1.32      1.32      1.58      0.01         0.01
  YS02001601YS02001602        1.50      1.50      1.61      1.26         0.01
  YS02001602YS02001605        1.45      1.45      1.50      2.31         0.01
  YS02001605YS02001607        1.41      1.45      1.41      1.55         1.41
  YS02001607YS02001610        0.97      0.97      1.00      0.01         0.01
  YS02001610YS02001613        0.96      0.96      1.00      0.01         0.01
  YS02001613YS02001616        0.92      0.92      0.96      0.01         0.01
  YS02001616YS02001619        0.90      0.90      0.92      0.07         0.12
  YS02001619YS02001622        0.90      0.90      0.90      0.99         0.86
  YS02001622YS02001625        0.90      0.90      1.09      0.01         0.01
  YS02001625YS02001629        0.85      0.85      1.09      0.01         0.01
  YS02001629YS02163301        1.09      1.09      1.10      0.14         0.18
  YS02001633YS02163601        1.12      1.12      1.15      0.38         0.36
  YS02001641YS02001644        1.04      1.06      1.04      1.64         1.02
  YS02001644YS02001647        0.83      0.83      1.04      0.05         0.01
  YS02001647YS02001649        0.83      0.83      0.96      0.01         0.01
  YS02001649YS02001757        0.96      0.96      1.03      0.06         0.07
  YS02001652YS02001649        0.76      0.76      0.96      0.01         0.01
  YS02001655YS02001652        0.52      0.52      0.73      0.01         0.01
  YS02001658YS02001655        0.30      0.30      0.52      0.01         0.01
  YS02001661YS02001658        0.12      0.12      0.30      0.01         0.01
  YS02001664YS02001661        0.01      0.01      0.16      0.01         0.01
  YS02001745YS02001748        0.01      0.01      0.23      0.01         0.01
  YS02001748YS02001751        0.27      0.27      0.39      0.01         0.01
  YS02001751YS02001754        0.39      0.39      0.62      0.01         0.01
  YS02001754YS02001757        0.67      0.67      1.03      0.01         0.01
  YS02001757CaochengTiaoxuchi        0.94      1.03      1.64      0.47         0.35
  YS02001759YS02001757        0.92      0.92      1.03      0.11         0.11
  YS02001762YS02001759        0.89      0.89      0.92      0.01         0.02
  YS02001765YS02001762        0.84      0.84      0.89      0.01         0.01
  YS02001767YS02001765        0.81      0.81      0.84      0.01         0.02
  YS02001770YS02001767        0.80      0.80      0.81      0.64         0.57
  YS02001774YS02001770        0.77      0.77      0.87      0.01         0.01
  YS02001779YS02001774        0.61      0.61      0.87      0.01         0.01
  YS02001783YS02001784        0.63      0.65      0.63      0.80         0.63
  YS02001784YS02001785        0.52      0.63      0.52      1.06         0.52
  YS02001786YS02001788        0.01      0.52      0.01      0.90         0.01
  YS02001790YS02001791        0.01      0.01      0.01      0.61         0.01
  YS02001793JiankangQianchi        0.01      0.01      7.29      0.01         0.01
  YS02001882YS02001884        0.59      0.59      0.61      0.01         0.01
  YS02001884YS02001887        0.63      0.63      0.64      0.01         0.01
  YS02001887YS02001890        0.66      0.66      0.67      0.19         0.01
  YS02001890YS02001895        0.58      0.58      0.68      0.01         0.01
  YS02001895YS02001898        0.58      0.58      0.58      0.01         0.01
  YS02001898YS02001901        0.59      0.59      0.63      0.01         0.01
  YS02001901YS02001904        0.62      0.62      0.63      0.01         0.01
  YS02001904YS02001907        0.62      0.62      0.88      0.01         0.01
  YS02001907YS02006553        1.06      1.06      1.14      0.01         0.01
  YS02001910YS02001907        0.68      0.68      0.86      0.06         0.06
  YS02001915YS02001910        0.59      0.59      0.68      0.01         0.01
  YS02001918YS02001915        0.51      0.51      0.59      0.01         0.01
  YS02001920YS02001918        0.51      0.51      0.52      0.01         0.01
  YS02001923YS02001920        0.46      0.46      0.52      0.01         0.01
  YS02001926YS02001923        0.20      0.20      0.22      0.01         0.01
  YS02001929YS02001926        0.08      0.08      0.22      0.01         0.01
  YS02006553YS02006556        0.77      0.77      0.88      0.01         0.01
  YS02006556YS02006558        0.82      0.82      0.90      0.01         0.01
  YS02006558YS02006561        0.55      0.76      0.55      1.00         0.55
  YS02006561YS02001783        0.47      0.47      0.65      0.01         0.01
  YS02163301YS02001633        1.10      1.10      1.13      0.01         0.01
  YS02163601YS02164001        1.07      1.07      1.15      0.06         0.01
  YS02164001YS02001641        1.06      1.07      1.06      0.79         0.74
  
  
  ***************
  Pumping Summary
  ***************
  
  ---------------------------------------------------------------------------------------------------------
                                                  Min       Avg       Max     Total     Power    % Time Off
                        Percent   Number of      Flow      Flow      Flow    Volume     Usage    Pump Curve
  Pump                 Utilized   Start-Ups       LPS       LPS       LPS  10^6 ltr     Kw-hr    Low   High
  ---------------------------------------------------------------------------------------------------------
  CC-R1                   21.71           4      0.00    683.00    683.00     4.270     79.71    0.0   12.7
  CC-R2                   19.41           5      0.00    683.00    683.00     3.819     70.91    0.0   19.5
  CC-S1                   42.01           8      0.00    200.00    200.00     2.420     13.80    0.0    0.0
  CC-S2                   24.05           5      0.00    200.00    200.00     1.385      7.68    0.0    0.0
  JK-R1                    7.25           8      0.00   1000.00   1000.00     2.089     21.92    0.0    0.0
  JK-R2                    3.92          12      0.00   1000.00   1000.00     1.128     10.79    0.0    0.0
  JK-S                    14.26          17      0.00    300.00    300.00     1.232     19.48    0.0    0.0
  

  Analysis begun on:  Tue Apr 15 14:51:59 2025
  Analysis ended on:  Tue Apr 15 14:52:00 2025
  Total elapsed time: 00:00:01