
  EPA STORM WATER MANAGEMENT MODEL - VERSION 5.2 (Build 5.2.4)
  PYSWMM TOOLKIT API - VERSION v1.0 (2023-11-27)
  ------------------------------------------------------------

  WARNING 04: minimum elevation drop used for Conduit WS02004404WS02004405
  WARNING 03: negative offset ignored for Link YS02001904YS02001907
  
  ****************
  Analysis Options
  ****************
  Flow Units ............... LPS
  Process Models:
    Rainfall/Runoff ........ YES
    RDII ................... NO
    Snowmelt ............... NO
    Groundwater ............ NO
    Flow Routing ........... YES
    Ponding Allowed ........ NO
    Water Quality .......... NO
  Infiltration Method ...... HORTON
  Flow Routing Method ...... DYNWAVE
  Surcharge Method ......... EXTRAN
  Starting Date ............ 08/28/2015 08:00:00
  Ending Date .............. 08/28/2015 16:00:00
  Antecedent Dry Days ...... 8.0
  Report Time Step ......... 00:01:00
  Wet Time Step ............ 00:01:00
  Dry Time Step ............ 00:01:00
  Routing Time Step ........ 30.00 sec
  Variable Time Step ....... YES
  Maximum Trials ........... 8
  Number of Threads ........ 4
  Head Tolerance ........... 0.001500 m
  
  
  **************************        Volume         Depth
  Runoff Quantity Continuity     hectare-m            mm
  **************************     ---------       -------
  Total Precipitation ......         1.631        49.163
  Evaporation Loss .........         0.000         0.000
  Infiltration Loss ........         0.098         2.955
  Surface Runoff ...........         1.500        45.222
  Final Storage ............         0.033         0.994
  Continuity Error (%) .....        -0.017
  
  
  **************************        Volume        Volume
  Flow Routing Continuity        hectare-m      10^6 ltr
  **************************     ---------     ---------
  Dry Weather Inflow .......         0.025         0.251
  Wet Weather Inflow .......         1.500        15.002
  Groundwater Inflow .......         0.000         0.000
  RDII Inflow ..............         0.000         0.000
  External Inflow ..........         0.083         0.834
  External Outflow .........         1.297        12.971
  Flooding Loss ............         0.280         2.797
  Evaporation Loss .........         0.000         0.000
  Exfiltration Loss ........         0.000         0.000
  Initial Stored Volume ....         0.243         2.431
  Final Stored Volume ......         0.277         2.771
  Continuity Error (%) .....        -0.118
  
  
  *************************
  Highest Continuity Errors
  *************************
  Node YS02001884 (5.10%)
  Node YS02001583 (-4.18%)
  Node YS02001774 (1.74%)
  
  
  ***************************
  Time-Step Critical Elements
  ***************************
  Link WS02006252WS02006251 (50.46%)
  Link WS02006238WS02006235 (12.85%)
  Link WS02004404WS02004405 (11.46%)
  Link WS02006235WS02006234 (8.13%)
  Link YS02001791YS02001793 (4.79%)
  
  
  ********************************
  Highest Flow Instability Indexes
  ********************************
  Link WS02006113WS02006111 (45)
  Link WS02006111WS02006112 (25)
  Link WS02006256WS02006235 (11)
  Link WS02006238WS02006235 (10)
  Link WS02006252WS02006251 (10)
  
  
  *********************************
  Most Frequent Nonconverging Nodes
  *********************************
  Node CC-1 (10.00%)
  Node CC-2 (10.00%)
  Node JK-1 (10.00%)
  Node JK-2 (10.00%)
  Node WSC (10.00%)
  
  
  *************************
  Routing Time Step Summary
  *************************
  Minimum Time Step           :     0.01 sec
  Average Time Step           :     1.95 sec
  Maximum Time Step           :     8.35 sec
  % of Time in Steady State   :     0.00
  Average Iterations per Step :     2.87
  % of Steps Not Converging   :    10.00
  Time Step Frequencies       :
     30.000 - 13.228 sec      :     0.00 %
     13.228 -  5.833 sec      :     8.43 %
      5.833 -  2.572 sec      :    20.27 %
      2.572 -  1.134 sec      :    15.25 %
      1.134 -  0.500 sec      :    56.05 %
  
  
  ***************************
  Subcatchment Runoff Summary
  ***************************
  
  ------------------------------------------------------------------------------------------------------------------------------
                            Total      Total      Total      Total     Imperv       Perv      Total       Total     Peak  Runoff
                           Precip      Runon       Evap      Infil     Runoff     Runoff     Runoff      Runoff   Runoff   Coeff
  Subcatchment                 mm         mm         mm         mm         mm         mm         mm    10^6 ltr      LPS
  ------------------------------------------------------------------------------------------------------------------------------
  sub60                     49.16       0.00       0.00       1.78      42.06       4.12      46.18        0.61   378.63   0.939
  sub61                     49.16       0.00       0.00       2.58      39.67       5.78      45.45        0.83   525.23   0.924
  sub62                     49.16       0.00       0.00       1.19      43.94       2.75      46.69        1.28   743.10   0.950
  sub63                     49.16       0.00       0.00       4.78      33.93       9.48      43.42        0.99   589.38   0.883
  sub64                     49.16       0.00       0.00       2.41      40.58       4.96      45.54        1.09   604.94   0.926
  sub65                     49.16       0.00       0.00       2.09      41.51       4.30      45.82        1.26   675.57   0.932
  sub66                     49.16       0.00       0.00       5.88      33.83       8.38      42.21        1.97   880.53   0.859
  sub67                     49.16       0.00       0.00       1.14      43.98       2.79      46.77        0.87   573.07   0.951
  sub68                     49.16       0.00       0.00       2.14      41.09       4.74      45.83        1.26   759.90   0.932
  sub69                     49.16       0.00       0.00       1.90      41.67       5.47      47.15        1.75   899.52   0.959
  sub70                     49.16       0.00       0.00       6.28      32.28      10.43      42.71        1.23   495.66   0.869
  sub71                     49.16       0.00       0.00       1.22      43.90       2.72      46.61        1.22   655.53   0.948
  sub72                     49.16       0.00       0.00       1.08      44.32       2.36      46.67        0.64   317.42   0.949
  
  
  ******************
  Node Depth Summary
  ******************
  
  ---------------------------------------------------------------------------------
                                 Average  Maximum  Maximum  Time of Max    Reported
                                   Depth    Depth      HGL   Occurrence   Max Depth
  Node                 Type       Meters   Meters   Meters  days hr:min      Meters
  ---------------------------------------------------------------------------------
  WS02003060           JUNCTION     0.23     0.38     5.31     0  02:38        0.38
  WS02003066           JUNCTION     0.19     0.30     5.85     0  02:38        0.30
  WS02003067           JUNCTION     0.50     0.70     6.02     0  02:37        0.70
  WS02003069           JUNCTION     0.26     0.43     5.01     0  02:38        0.43
  WS02003072           JUNCTION     0.32     0.50     4.87     0  02:39        0.50
  WS02003073           JUNCTION     0.18     0.30     4.36     0  02:39        0.30
  WS02004401           JUNCTION     0.57     0.85     6.85     0  02:35        0.85
  WS02004402           JUNCTION     0.61     0.88     6.84     0  02:35        0.88
  WS02004403           JUNCTION     0.63     0.89     6.82     0  02:36        0.89
  WS02004404           JUNCTION     0.71     0.96     6.81     0  02:36        0.96
  WS02004405           JUNCTION     0.70     0.96     6.81     0  02:36        0.95
  WS02004406           JUNCTION     0.72     0.96     6.79     0  02:35        0.96
  WS02004407           JUNCTION     0.17     0.30     6.61     0  02:36        0.30
  WS02004409           JUNCTION     0.38     0.67     6.44     0  02:36        0.67
  WS02004410           JUNCTION     0.41     0.68     6.40     0  02:36        0.68
  WS02004411           JUNCTION     0.43     0.69     6.37     0  02:37        0.69
  WS02004412           JUNCTION     0.45     0.70     6.34     0  02:37        0.70
  WS02004413           JUNCTION     0.61     0.86     6.33     0  02:37        0.86
  WS02006109           JUNCTION     0.63     1.48     8.10     0  02:39        0.98
  WS02006110           JUNCTION     0.63     1.42     8.01     0  02:39        0.94
  WS02006111           JUNCTION     0.17     0.29     6.99     0  02:41        0.29
  WS02006112           JUNCTION     0.73     1.07     6.95     0  02:26        1.06
  WS02006113           JUNCTION     0.26     0.46     7.35     0  02:59        0.46
  WS02006115           JUNCTION     0.46     0.75     6.89     0  02:35        0.75
  WS02006116           JUNCTION     0.54     0.83     6.87     0  02:35        0.83
  WS02006228           JUNCTION     0.61     1.79     8.44     0  02:39        1.04
  WS02006229           JUNCTION     0.58     1.89     8.58     0  02:39        1.05
  WS02006230           JUNCTION     0.57     2.35     9.09     0  02:39        1.17
  WS02006231           JUNCTION     0.39     1.71     8.83     0  02:39        0.93
  WS02006232           JUNCTION     0.52     1.78     8.82     0  02:39        1.17
  WS02006234           JUNCTION     0.44     1.57     8.72     0  02:39        1.24
  WS02006235           JUNCTION     0.47     1.73     8.89     0  02:38        1.36
  WS02006238           JUNCTION     0.50     1.79     8.94     0  02:38        1.40
  WS02006239           JUNCTION     0.47     1.74     8.95     0  02:38        1.41
  WS02006240           JUNCTION     0.43     1.63     8.92     0  02:38        1.38
  WS02006242           JUNCTION     0.50     1.55     8.82     0  02:02        1.43
  WS02006243           JUNCTION     0.41     1.47     8.89     0  02:02        1.30
  WS02006245           JUNCTION     0.41     1.56     9.04     0  02:02        1.24
  WS02006247           JUNCTION     0.44     1.38     8.88     0  02:17        1.22
  WS02006248           JUNCTION     0.40     1.10     8.69     0  01:55        1.10
  WS02006249           JUNCTION     0.44     1.09     8.69     0  01:53        1.09
  WS02006251           JUNCTION     0.43     1.41     9.08     0  02:17        1.14
  WS02006252           JUNCTION     0.33     1.50     9.74     0  00:00        0.69
  WS02006256           JUNCTION     0.91     2.35     9.28     0  00:00        2.35
  WSF200               JUNCTION     0.16     0.29     5.52     0  02:38        0.29
  YS02001580           JUNCTION     0.07     1.05     9.59     0  02:07        0.78
  YS02001583           JUNCTION     0.11     1.00     9.50     0  02:07        0.83
  YS02001586           JUNCTION     0.17     1.13     9.30     0  02:07        1.13
  YS02001590           JUNCTION     0.26     1.40     9.26     0  02:07        1.38
  YS02001593           JUNCTION     0.20     1.37     9.24     0  02:07        1.28
  YS02001596           JUNCTION     0.26     1.72     9.14     0  02:07        1.66
  YS02001600           JUNCTION     0.32     1.87     9.00     0  02:07        1.86
  YS02001601           JUNCTION     0.52     2.06     8.90     0  02:06        2.06
  YS02001602           JUNCTION     0.43     1.87     8.77     0  02:06        1.87
  YS02001605           JUNCTION     0.40     1.78     8.68     0  02:06        1.78
  YS02001607           JUNCTION     0.40     1.65     8.49     0  02:26        1.64
  YS02001610           JUNCTION     0.45     1.68     8.48     0  02:06        1.68
  YS02001613           JUNCTION     0.40     1.68     8.52     0  02:06        1.65
  YS02001616           JUNCTION     0.33     1.61     8.52     0  02:06        1.61
  YS02001619           JUNCTION     0.31     1.61     8.53     0  02:11        1.61
  YS02001622           JUNCTION     0.30     1.58     8.49     0  02:11        1.58
  YS02001625           JUNCTION     0.57     1.78     8.38     0  02:10        1.78
  YS02001629           JUNCTION     0.41     1.85     8.40     0  02:11        1.85
  YS02001633           JUNCTION     0.49     2.04     8.50     0  02:12        2.04
  YS02001641           JUNCTION     0.48     1.97     8.41     0  02:12        1.97
  YS02001644           JUNCTION     0.47     1.92     8.35     0  02:11        1.92
  YS02001647           JUNCTION     0.26     1.81     8.42     0  02:12        1.69
  YS02001649           JUNCTION     0.29     2.05     8.44     0  02:12        1.91
  YS02001652           JUNCTION     0.18     2.16     8.76     0  02:12        1.70
  YS02001655           JUNCTION     0.14     2.20     9.05     0  02:12        1.48
  YS02001658           JUNCTION     0.10     2.30     9.44     0  02:12        1.24
  YS02001661           JUNCTION     0.14     1.02     8.42     0  02:13        1.01
  YS02001664           JUNCTION     0.05     0.48     8.40     0  02:13        0.30
  YS02001745           JUNCTION     0.05     0.69     8.20     0  02:13        0.56
  YS02001748           JUNCTION     0.09     2.27     9.35     0  02:12        2.27
  YS02001751           JUNCTION     0.11     2.20     9.08     0  02:13        2.20
  YS02001754           JUNCTION     0.15     2.12     8.73     0  02:13        2.12
  YS02001757           JUNCTION     0.32     2.08     8.34     0  02:13        2.07
  YS02001759           JUNCTION     0.25     2.08     8.45     0  02:13        1.94
  YS02001762           JUNCTION     0.24     2.05     8.45     0  02:13        1.85
  YS02001765           JUNCTION     0.22     2.10     8.55     0  02:11        1.79
  YS02001767           JUNCTION     0.22     2.03     8.52     0  02:11        1.79
  YS02001770           JUNCTION     0.23     1.95     8.44     0  02:11        1.84
  YS02001774           JUNCTION     0.30     2.05     8.47     0  02:11        1.91
  YS02001779           JUNCTION     0.14     1.68     8.37     0  02:11        1.65
  YS02001783           JUNCTION     0.22     1.33     7.47     0  02:10        1.22
  YS02001784           JUNCTION     0.24     1.18     7.25     0  02:10        1.11
  YS02001786           JUNCTION     0.20     0.92     6.95     0  02:10        0.87
  YS02001788           JUNCTION     0.14     0.62     6.60     0  02:15        0.62
  YS02001790           JUNCTION     0.17     0.72     6.36     0  02:21        0.72
  YS02001791           JUNCTION     0.11     0.43     5.90     0  02:22        0.43
  YS02001793           JUNCTION     0.06     0.29     5.12     0  02:12        0.29
  YS02001882           JUNCTION     0.29     1.64     8.36     0  02:10        1.62
  YS02001884           JUNCTION     0.38     1.73     8.35     0  02:10        1.72
  YS02001887           JUNCTION     0.46     1.81     8.35     0  02:11        1.81
  YS02001890           JUNCTION     0.49     1.81     8.32     0  02:10        1.81
  YS02001895           JUNCTION     0.26     1.57     8.31     0  02:10        1.56
  YS02001898           JUNCTION     0.26     1.58     8.31     0  02:10        1.57
  YS02001901           JUNCTION     0.38     1.68     8.29     0  02:10        1.67
  YS02001904           JUNCTION     0.36     1.64     8.27     0  02:10        1.63
  YS02001907           JUNCTION     0.69     1.96     8.25     0  02:10        1.96
  YS02001910           JUNCTION     0.48     2.02     8.53     0  02:11        1.82
  YS02001915           JUNCTION     0.29     1.97     8.69     0  02:11        1.66
  YS02001918           JUNCTION     0.15     1.81     8.88     0  02:11        1.33
  YS02001920           JUNCTION     0.23     2.12     9.13     0  02:11        1.41
  YS02001923           JUNCTION     0.11     2.03     9.29     0  02:11        1.16
  YS02001926           JUNCTION     0.15     1.90     9.35     0  02:11        1.00
  YS02001929           JUNCTION     0.08     1.78     9.47     0  02:11        0.73
  YS02006553           JUNCTION     0.69     2.00     8.28     0  02:10        1.97
  YS02006556           JUNCTION     0.66     1.99     8.30     0  02:10        1.93
  YS02006558           JUNCTION     0.70     2.03     8.30     0  02:10        1.99
  YS02006561           JUNCTION     0.14     1.02     7.68     0  02:10        0.88
  YS02163301           JUNCTION     0.44     1.93     8.45     0  02:12        1.93
  YS02163601           JUNCTION     0.53     2.08     8.48     0  02:12        2.08
  YS02164001           JUNCTION     0.47     1.99     8.45     0  02:12        1.99
  CC-1                 OUTFALL      0.00     0.00     0.00     0  00:00        0.00
  CC-2                 OUTFALL      0.00     0.00     0.00     0  00:00        0.00
  JK-1                 OUTFALL      0.00     0.00     0.00     0  00:00        0.00
  JK-2                 OUTFALL      0.00     0.00     0.00     0  00:00        0.00
  WSC                  OUTFALL      0.18     0.30     0.97     0  02:39        0.30
  CC-storage           STORAGE      0.88     1.46     6.96     0  02:36        1.46
  JK-storage           STORAGE      2.80     4.21     5.01     0  02:25        4.14
  
  
  *******************
  Node Inflow Summary
  *******************
  
  -------------------------------------------------------------------------------------------------
                                  Maximum  Maximum                  Lateral       Total        Flow
                                  Lateral    Total  Time of Max      Inflow      Inflow     Balance
                                   Inflow   Inflow   Occurrence      Volume      Volume       Error
  Node                 Type           LPS      LPS  days hr:min    10^6 ltr    10^6 ltr     Percent
  -------------------------------------------------------------------------------------------------
  WS02003060           JUNCTION     16.53   552.52     0  02:38       0.476        5.13       0.037
  WS02003066           JUNCTION      0.00   535.98     0  02:37           0        4.66       0.027
  WS02003067           JUNCTION      0.00   535.99     0  02:37           0        4.66       0.086
  WS02003069           JUNCTION      0.32   552.78     0  02:38     0.00922        5.14       0.067
  WS02003072           JUNCTION      0.00   552.73     0  02:38           0        5.14       0.123
  WS02003073           JUNCTION      1.82   554.51     0  02:39      0.0524        5.18       0.095
  WS02004401           JUNCTION      0.00   537.30     0  02:30           0        4.76       0.208
  WS02004402           JUNCTION      0.00   536.92     0  02:30           0        4.75       0.211
  WS02004403           JUNCTION      0.00   536.68     0  02:36           0        4.74       0.207
  WS02004404           JUNCTION      0.16   536.61     0  02:36     0.00467        4.73       0.175
  WS02004405           JUNCTION      0.04   536.49     0  02:36      0.0011        4.73       0.257
  WS02004406           JUNCTION      0.00   536.66     0  02:36           0        4.71       0.430
  WS02004407           JUNCTION      0.00   536.38     0  02:36           0        4.69       0.020
  WS02004409           JUNCTION      0.00   536.33     0  02:36           0        4.69       0.047
  WS02004410           JUNCTION      0.00   536.22     0  02:36           0        4.69       0.083
  WS02004411           JUNCTION      0.00   536.16     0  02:36           0        4.69       0.109
  WS02004412           JUNCTION      0.00   536.10     0  02:37           0        4.68       0.150
  WS02004413           JUNCTION      0.00   536.11     0  02:37           0        4.68       0.268
  WS02006109           JUNCTION      1.23   572.58     0  02:39      0.0354         4.8       0.199
  WS02006110           JUNCTION      0.00   577.49     0  02:39           0        4.79       0.135
  WS02006111           JUNCTION      0.00   561.95     0  02:42           0        4.79       0.009
  WS02006112           JUNCTION      0.00   542.07     0  02:41           0        4.79       0.360
  WS02006113           JUNCTION      0.00   573.08     0  02:39           0        4.79       0.038
  WS02006115           JUNCTION      0.00   548.72     0  02:41           0        4.77       0.128
  WS02006116           JUNCTION      0.00   538.83     0  02:30           0        4.76       0.072
  WS02006228           JUNCTION      0.00   571.44     0  02:39           0        4.77       0.088
  WS02006229           JUNCTION      0.00   570.93     0  02:39           0        4.78       0.094
  WS02006230           JUNCTION     10.28   584.73     0  02:39       0.296        4.78       0.094
  WS02006231           JUNCTION      0.00   570.74     0  03:10           0        4.49       0.013
  WS02006232           JUNCTION      0.00   569.63     0  03:10           0         4.5       0.275
  WS02006234           JUNCTION      0.00   565.42     0  03:10           0        4.49      -0.166
  WS02006235           JUNCTION      0.00   558.69     0  02:55           0        4.55       0.291
  WS02006238           JUNCTION      0.00   423.33     0  03:22           0        3.68      -0.122
  WS02006239           JUNCTION      0.00   422.39     0  03:22           0        3.66      -0.047
  WS02006240           JUNCTION      0.00   421.11     0  03:12           0        3.64       0.009
  WS02006242           JUNCTION      0.00   420.88     0  03:12           0        3.63       0.141
  WS02006243           JUNCTION      0.00   421.22     0  03:12           0        3.62       0.077
  WS02006245           JUNCTION      0.00   420.43     0  03:12           0        3.63       0.420
  WS02006247           JUNCTION      0.00   423.93     0  02:01           0        3.63       0.054
  WS02006248           JUNCTION      0.00   418.70     0  03:12           0        3.63       0.079
  WS02006249           JUNCTION      0.00   478.92     0  02:00           0        3.81       0.398
  WS02006251           JUNCTION      0.08   407.89     0  02:17     0.00222         3.8      -0.036
  WS02006252           JUNCTION      0.00   400.00     0  00:00           0         3.8      -0.092
  WS02006256           JUNCTION      0.00   300.00     0  00:00           0        1.25      -0.587
  WSF200               JUNCTION      0.00   535.99     0  02:38           0        4.66       0.007
  YS02001580           JUNCTION      0.00    99.79     0  02:07           0     0.00418      -0.446
  YS02001583           JUNCTION      0.00   151.42     0  02:06           0      0.0153      -4.013
  YS02001586           JUNCTION    495.66   495.85     0  02:15        1.23        1.25       0.089
  YS02001590           JUNCTION      0.00   318.37     0  02:27           0        1.12      -0.037
  YS02001593           JUNCTION      0.00   318.02     0  02:27           0        1.12       0.005
  YS02001596           JUNCTION      0.00   317.99     0  02:16           0        1.12      -0.003
  YS02001600           JUNCTION      0.00   317.95     0  02:18           0        1.12       0.012
  YS02001601           JUNCTION    899.52  1217.01     0  02:14        1.75        2.87       0.022
  YS02001602           JUNCTION      0.00   509.01     0  02:06           0        2.06       0.021
  YS02001605           JUNCTION      0.00   509.13     0  02:06           0        1.99       0.021
  YS02001607           JUNCTION      0.00   509.26     0  02:06           0        1.99       0.103
  YS02001610           JUNCTION      0.00   512.66     0  02:06           0        1.99       0.109
  YS02001613           JUNCTION      0.00   513.32     0  02:06           0        1.73       0.099
  YS02001616           JUNCTION      0.00   512.35     0  02:06           0        1.73       0.028
  YS02001619           JUNCTION    880.53   934.08     0  02:10        1.97        3.69       0.003
  YS02001622           JUNCTION      0.00   933.15     0  02:10           0        3.68       0.000
  YS02001625           JUNCTION      0.00   961.43     0  02:15           0        3.69       0.231
  YS02001629           JUNCTION      0.00   932.92     0  02:10           0        3.24       0.031
  YS02001633           JUNCTION    675.77  1392.39     0  02:10        1.27        4.49       0.077
  YS02001641           JUNCTION      0.00  1387.18     0  02:10           0        4.47       0.062
  YS02001644           JUNCTION    604.98  1808.09     0  02:10         1.1        5.56       0.060
  YS02001647           JUNCTION      0.00  1806.55     0  02:10           0        5.53       0.006
  YS02001649           JUNCTION      0.00  2052.06     0  02:10           0        6.52       0.003
  YS02001652           JUNCTION      0.00   702.64     0  02:14           0        0.99      -0.106
  YS02001655           JUNCTION      0.15   702.38     0  02:14     0.00443        0.99       0.021
  YS02001658           JUNCTION      0.00   699.78     0  02:14           0       0.985      -0.034
  YS02001661           JUNCTION      0.00   791.49     0  02:13           0       0.986       0.027
  YS02001664           JUNCTION    589.38   589.38     0  02:14       0.986       0.986      -0.008
  YS02001745           JUNCTION    378.63   378.63     0  02:13       0.607       0.607       0.242
  YS02001748           JUNCTION      0.04   592.00     0  02:12      0.0013       0.607      -0.393
  YS02001751           JUNCTION      0.01   431.92     0  02:13    0.000317       0.612       0.116
  YS02001754           JUNCTION      0.26   432.84     0  02:13     0.00749       0.624      -0.213
  YS02001757           JUNCTION      0.00  3424.48     0  02:14           0        9.28       0.054
  YS02001759           JUNCTION    525.27  1267.98     0  02:14       0.835        2.13      -0.009
  YS02001762           JUNCTION      0.00   745.03     0  02:14           0         1.3       0.004
  YS02001765           JUNCTION      0.00   744.63     0  02:14           0         1.3       0.003
  YS02001767           JUNCTION      0.54   744.54     0  02:14      0.0154         1.3      -0.004
  YS02001770           JUNCTION    743.25   743.34     0  02:14        1.28        1.33      -0.029
  YS02001774           JUNCTION      0.00   343.10     0  02:11           0      0.0623       1.772
  YS02001779           JUNCTION      0.01   347.38     0  02:11    0.000144      0.0191      -1.366
  YS02001783           JUNCTION      0.00  1156.62     0  02:12           0        3.51       0.008
  YS02001784           JUNCTION      1.06  1157.67     0  02:12      0.0305        3.54       0.014
  YS02001786           JUNCTION      0.06  1157.78     0  02:12     0.00162        3.54       0.019
  YS02001788           JUNCTION      0.07  1157.84     0  02:12     0.00204        3.55       0.009
  YS02001790           JUNCTION      0.15  1170.35     0  02:13     0.00446        3.55       0.025
  YS02001791           JUNCTION      0.00  1270.92     0  02:21           0        3.55      -0.021
  YS02001793           JUNCTION      0.00  1227.92     0  02:16           0        3.55       0.006
  YS02001882           JUNCTION      0.00    36.64     0  02:08           0      0.0125       5.004
  YS02001884           JUNCTION      0.00    84.19     0  02:08           0       0.048       5.376
  YS02001887           JUNCTION    573.52   573.54     0  02:13       0.883       0.916       0.485
  YS02001890           JUNCTION      0.00   573.67     0  02:13           0       0.875       0.583
  YS02001895           JUNCTION      0.00   514.23     0  02:15           0        0.86       0.173
  YS02001898           JUNCTION      0.00   514.25     0  02:15           0       0.859       0.034
  YS02001901           JUNCTION      0.00   514.26     0  02:15           0       0.861       0.373
  YS02001904           JUNCTION      0.00   514.38     0  02:15           0       0.865       0.323
  YS02001907           JUNCTION      0.00  1515.05     0  02:15           0         2.8       0.620
  YS02001910           JUNCTION      0.00  1013.49     0  02:12           0        1.94       0.367
  YS02001915           JUNCTION    655.55  1013.36     0  02:12        1.22        1.98       0.083
  YS02001918           JUNCTION      0.00   433.96     0  02:11           0       0.787       0.018
  YS02001920           JUNCTION      2.87   433.98     0  02:11      0.0827       0.771       0.115
  YS02001923           JUNCTION      0.04   401.24     0  02:11     0.00109       0.673      -0.084
  YS02001926           JUNCTION      0.05   464.95     0  02:10      0.0015       0.653       0.046
  YS02001929           JUNCTION    317.42   317.42     0  02:15       0.642       0.642      -0.047
  YS02006553           JUNCTION      0.00   797.61     0  02:26           0        2.27       0.519
  YS02006556           JUNCTION      0.00   798.00     0  02:26           0        2.28       0.351
  YS02006558           JUNCTION    760.78  1164.80     0  02:10        1.29        3.54       0.102
  YS02006561           JUNCTION      0.00  1165.02     0  02:10           0        3.51      -0.004
  YS02163301           JUNCTION      0.00   933.26     0  02:10           0        3.24       0.048
  YS02163601           JUNCTION      0.11  1391.32     0  02:10     0.00317        4.47       0.110
  YS02164001           JUNCTION      0.00  1390.08     0  02:10           0        4.47       0.056
  CC-1                 OUTFALL       0.00   683.00     0  00:00           0        3.26       0.000
  CC-2                 OUTFALL       0.00   683.00     0  00:00           0        2.25       0.000
  JK-1                 OUTFALL       0.00  1000.00     0  00:00           0        1.09       0.000
  JK-2                 OUTFALL       0.00  1000.00     0  00:00           0        1.19       0.000
  WSC                  OUTFALL       0.00   554.43     0  02:39           0        5.18       0.000
  CC-storage           STORAGE       0.00  3424.38     0  02:14           0        11.5      -0.103
  JK-storage           STORAGE       0.00  1267.10     0  02:20           0         3.7       0.110
  
  
  **********************
  Node Surcharge Summary
  **********************
  
  Surcharging occurs when water rises above the top of the highest conduit.
  ---------------------------------------------------------------------
                                               Max. Height   Min. Depth
                                   Hours       Above Crown    Below Rim
  Node                 Type      Surcharged         Meters       Meters
  ---------------------------------------------------------------------
  WS02006109           JUNCTION        1.81          0.658        1.162
  WS02006110           JUNCTION        0.50          0.513        1.337
  WS02006112           JUNCTION        0.49          0.069        1.611
  WS02006228           JUNCTION        1.79          0.962        1.238
  WS02006229           JUNCTION        1.82          1.090        1.360
  WS02006230           JUNCTION        0.51          1.268        0.302
  WS02006231           JUNCTION        0.62          1.001        0.529
  WS02006232           JUNCTION        1.92          1.082        0.398
  WS02006234           JUNCTION        0.93          0.848        0.392
  WS02006235           JUNCTION        1.80          1.019        0.271
  WS02006238           JUNCTION        1.86          1.071        0.359
  WS02006239           JUNCTION        1.76          1.000        0.290
  WS02006240           JUNCTION        1.76          0.921        0.469
  WS02006242           JUNCTION        1.80          0.820        0.000
  WS02006243           JUNCTION        1.74          0.763        0.007
  WS02006245           JUNCTION        1.72          0.850        0.000
  WS02006247           JUNCTION        1.72          0.673        0.087
  WS02006248           JUNCTION        1.70          0.380        0.000
  WS02006249           JUNCTION        1.70          0.390        0.000
  WS02006251           JUNCTION        0.66          0.378        0.802
  WS02006252           JUNCTION        1.94          1.100        0.000
  WS02006256           JUNCTION        5.58          2.050        0.000
  YS02001580           JUNCTION        0.44          0.450        0.000
  YS02001583           JUNCTION        0.45          0.360        0.140
  YS02001586           JUNCTION        0.57          0.510        0.000
  YS02001590           JUNCTION        0.64          0.750        0.000
  YS02001593           JUNCTION        0.64          0.755        0.085
  YS02001596           JUNCTION        0.75          0.988        0.082
  YS02001600           JUNCTION        0.91          1.190        0.000
  YS02001601           JUNCTION        1.28          1.440        0.000
  YS02001602           JUNCTION        1.17          1.270        0.000
  YS02001605           JUNCTION        1.11          1.180        0.000
  YS02001607           JUNCTION        0.60          0.646        0.034
  YS02001610           JUNCTION        0.63          0.680        0.000
  YS02001613           JUNCTION        0.60          0.680        0.020
  YS02001616           JUNCTION        0.56          0.609        0.001
  YS02001619           JUNCTION        0.54          0.605        0.005
  YS02001622           JUNCTION        0.54          0.582        0.038
  YS02001625           JUNCTION        0.72          0.780        0.000
  YS02001629           JUNCTION        0.48          0.470        0.000
  YS02001633           JUNCTION        0.73          1.024        0.036
  YS02001641           JUNCTION        0.65          0.972        0.128
  YS02001644           JUNCTION        0.61          0.920        0.000
  YS02001647           JUNCTION        0.40          0.811        0.089
  YS02001649           JUNCTION        0.50          1.049        0.001
  YS02001652           JUNCTION        0.33          1.130        0.000
  YS02001655           JUNCTION        0.21          1.200        0.000
  YS02001658           JUNCTION        0.07          1.300        0.000
  YS02001748           JUNCTION        0.01          1.190        0.000
  YS02001751           JUNCTION        0.11          1.200        0.000
  YS02001754           JUNCTION        0.23          1.068        0.082
  YS02001757           JUNCTION        0.54          1.084        0.126
  YS02001759           JUNCTION        0.45          1.084        0.126
  YS02001762           JUNCTION        0.42          1.054        0.096
  YS02001765           JUNCTION        0.38          1.100        0.000
  YS02001767           JUNCTION        0.36          1.030        0.000
  YS02001770           JUNCTION        0.34          0.920        0.000
  YS02001774           JUNCTION        0.40          1.050        0.000
  YS02001779           JUNCTION        0.24          0.680        0.000
  YS02001783           JUNCTION        0.42          0.526        1.074
  YS02001784           JUNCTION        0.40          0.378        1.112
  YS02001786           JUNCTION        0.29          0.123        1.307
  YS02001882           JUNCTION        0.37          0.644        0.186
  YS02001884           JUNCTION        0.38          0.674        0.196
  YS02001887           JUNCTION        0.41          0.759        0.191
  YS02001890           JUNCTION        0.42          0.760        0.000
  YS02001895           JUNCTION        0.36          0.567        0.183
  YS02001898           JUNCTION        0.35          0.545        0.195
  YS02001901           JUNCTION        0.40          0.680        0.190
  YS02001904           JUNCTION        0.39          0.642        0.208
  YS02001907           JUNCTION        0.65          0.950        0.000
  YS02001910           JUNCTION        0.45          1.021        0.079
  YS02001915           JUNCTION        0.36          0.974        0.026
  YS02001918           JUNCTION        0.28          0.810        0.000
  YS02001920           JUNCTION        0.30          1.121        0.019
  YS02001923           JUNCTION        0.01          0.820        0.000
  YS02001926           JUNCTION        0.01          0.900        0.000
  YS02001929           JUNCTION        0.01          0.780        0.000
  YS02006553           JUNCTION        0.65          0.996        0.194
  YS02006556           JUNCTION        0.54          0.952        0.398
  YS02006558           JUNCTION        0.53          0.933        0.467
  YS02006561           JUNCTION        0.25          0.225        0.925
  YS02163301           JUNCTION        0.71          0.933        0.097
  YS02163601           JUNCTION        0.76          1.077        0.003
  YS02164001           JUNCTION        0.66          0.994        0.106
  
  
  *********************
  Node Flooding Summary
  *********************
  
  Flooding refers to all water that overflows a node, whether it ponds or not.
  --------------------------------------------------------------------------
                                                             Total   Maximum
                                 Maximum   Time of Max       Flood    Ponded
                        Hours       Rate    Occurrence      Volume     Depth
  Node                 Flooded       LPS   days hr:min    10^6 ltr    Meters
  --------------------------------------------------------------------------
  WS02006242              0.01     85.94      0  02:02       0.000     0.000
  WS02006245              0.01     35.93      0  02:02       0.000     0.000
  WS02006248              0.01     16.29      0  02:25       0.000     0.000
  WS02006249              0.64    106.25      0  02:17       0.155     0.000
  WS02006252              0.01    269.82      0  02:00       0.000     0.000
  WS02006256              1.15    293.19      0  00:00       0.361     0.000
  YS02001580              0.01     93.84      0  02:07       0.000     0.000
  YS02001586              0.31    178.29      0  02:15       0.112     0.000
  YS02001590              0.01      0.69      0  02:07       0.000     0.000
  YS02001600              0.01      1.61      0  02:07       0.000     0.000
  YS02001601              0.50    819.19      0  02:14       0.806     0.000
  YS02001602              0.38     61.97      0  02:17       0.075     0.000
  YS02001605              0.01      4.13      0  02:06       0.000     0.000
  YS02001610              0.31    376.23      0  02:16       0.263     0.000
  YS02001625              0.28    961.18      0  02:15       0.460     0.000
  YS02001629              0.05     85.44      0  02:13       0.009     0.000
  YS02001644              0.04    206.11      0  02:14       0.018     0.000
  YS02001652              0.01     37.68      0  02:12       0.000     0.000
  YS02001655              0.01     81.44      0  02:12       0.000     0.000
  YS02001658              0.01    341.91      0  02:12       0.000     0.000
  YS02001748              0.01    325.94      0  02:12       0.000     0.000
  YS02001751              0.01     32.67      0  02:13       0.000     0.000
  YS02001765              0.01     44.70      0  02:11       0.000     0.000
  YS02001767              0.01    103.18      0  02:11       0.000     0.000
  YS02001770              0.01    116.10      0  02:11       0.000     0.000
  YS02001774              0.01     29.03      0  02:11       0.000     0.000
  YS02001779              0.01    274.92      0  02:11       0.001     0.000
  YS02001890              0.08     69.22      0  02:13       0.010     0.000
  YS02001907              0.23   1090.32      0  02:15       0.519     0.000
  YS02001918              0.01     94.37      0  02:11       0.001     0.000
  YS02001923              0.01    261.76      0  02:11       0.000     0.000
  YS02001926              0.01    274.81      0  02:11       0.001     0.000
  YS02001929              0.01    267.02      0  02:11       0.001     0.000
  
  
  **********************
  Storage Volume Summary
  **********************
  
  ------------------------------------------------------------------------------------------------
                         Average    Avg   Evap  Exfil     Maximum    Max    Time of Max    Maximum
                          Volume   Pcnt   Pcnt   Pcnt      Volume   Pcnt     Occurrence    Outflow
  Storage Unit           1000 m³   Full   Loss   Loss     1000 m³   Full    days hr:min        LPS
  ------------------------------------------------------------------------------------------------
  CC-storage               2.450   38.2    0.0    0.0       4.074   63.6       0  02:36    1783.53
  JK-storage               0.141   48.4    0.0    0.0       0.211   72.5       0  02:25    2300.00
  
  
  ***********************
  Outfall Loading Summary
  ***********************
  
  -----------------------------------------------------------
                         Flow       Avg       Max       Total
                         Freq      Flow      Flow      Volume
  Outfall Node           Pcnt       LPS       LPS    10^6 ltr
  -----------------------------------------------------------
  CC-1                  19.43    683.00    683.00       3.263
  CC-2                  14.98    683.00    683.00       2.254
  JK-1                   6.09   1000.00   1000.00       1.089
  JK-2                   4.97   1000.00   1000.00       1.187
  WSC                   99.96    244.09    554.43       5.178
  -----------------------------------------------------------
  System                29.09   3610.09   3916.25      12.971
  
  
  ********************
  Link Flow Summary
  ********************
  
  -----------------------------------------------------------------------------
                                 Maximum  Time of Max   Maximum    Max/    Max/
                                  |Flow|   Occurrence   |Veloc|    Full    Full
  Link                 Type          LPS  days hr:min     m/sec    Flow   Depth
  -----------------------------------------------------------------------------
  1                    CONDUIT    554.43     0  02:39      2.83    0.19    0.30
  WS02003060WS02003069 CONDUIT    552.46     0  02:38      1.64    0.22    0.34
  WS02003066WSF200     CONDUIT    535.99     0  02:38      2.85    0.09    0.22
  WS02003067WS02003066 CONDUIT    535.98     0  02:37      1.21    0.17    0.42
  WS02003069WS02003072 CONDUIT    552.73     0  02:38      1.37    0.27    0.39
  WS02003072WS02003073 CONDUIT    552.69     0  02:39      1.43    1.19    0.37
  WS02004401WS02004402 CONDUIT    536.92     0  02:30      0.98    0.64    0.86
  WS02004402WS02004403 CONDUIT    536.68     0  02:36      0.97    0.77    0.88
  WS02004403WS02004404 CONDUIT    536.45     0  02:36      0.92    0.39    0.93
  WS02004404WS02004405 CONDUIT    536.45     0  02:36      1.08    5.26    0.96
  WS02004405WS02004406 CONDUIT    536.66     0  02:36      0.99    1.06    0.96
  WS02004406WS02004407 CONDUIT    536.38     0  02:36      1.04    0.24    0.63
  WS02004407WS02004409 CONDUIT    536.33     0  02:36      1.55    0.19    0.48
  WS02004409WS02004410 CONDUIT    536.22     0  02:36      1.04    0.69    0.67
  WS02004410WS02004411 CONDUIT    536.16     0  02:36      0.96    0.73    0.69
  WS02004411WS02004412 CONDUIT    536.10     0  02:37      0.92    0.76    0.69
  WS02004412WS02004413 CONDUIT    536.11     0  02:37      0.82    0.36    0.78
  WS02004413WS02003067 CONDUIT    535.99     0  02:37      1.11    0.23    0.59
  WS02006109WS02006110 CONDUIT    577.49     0  02:39      1.15    1.11    1.00
  WS02006110WS02006113 CONDUIT    573.08     0  02:39      1.39    0.52    0.78
  WS02006111WS02006112 CONDUIT    542.07     0  02:41      1.81    0.26    0.67
  WS02006112WS02006115 CONDUIT    548.72     0  02:41      0.86    0.32    0.87
  WS02006113WS02006111 CONDUIT    561.95     0  02:42      2.47    0.67    0.46
  WS02006115WS02006116 CONDUIT    538.83     0  02:30      1.07    0.69    0.76
  WS02006116WS02004401 CONDUIT    537.30     0  02:30      0.98    0.74    0.84
  WS02006228WS02006109 CONDUIT    571.35     0  02:39      1.14    2.50    1.00
  WS02006229WS02006228 CONDUIT    571.44     0  02:39      1.14    1.89    1.00
  WS02006230WS02006229 CONDUIT    570.93     0  02:39      1.48   12.71    1.00
  WS02006231WS02006230 CONDUIT    574.45     0  02:39      1.56    8.71    1.00
  WS02006232WS02006231 CONDUIT    570.74     0  03:10      1.49    1.20    1.00
  WS02006234WS02006232 CONDUIT    569.63     0  03:10      1.48    1.15    1.00
  WS02006235WS02006234 CONDUIT    565.42     0  03:10      1.47    5.97    1.00
  WS02006238WS02006235 CONDUIT    424.77     0  03:22      1.45    0.95    1.00
  WS02006239WS02006238 CONDUIT    423.33     0  03:22      1.10    1.35    1.00
  WS02006240WS02006239 CONDUIT    422.39     0  03:22      1.24    1.33    1.00
  WS02006242WS02006240 CONDUIT    421.11     0  03:12      1.13    1.67    1.00
  WS02006243WS02006242 CONDUIT    420.88     0  03:12      1.40    0.90    1.00
  WS02006245WS02006243 CONDUIT    421.22     0  03:12      1.45    1.25    1.00
  WS02006247WS02006245 CONDUIT    420.43     0  03:12      1.43    3.33    1.00
  WS02006248WS02006247 CONDUIT    423.93     0  02:01      1.44    0.92    1.00
  WS02006249WS02006248 CONDUIT    418.70     0  03:12      1.36    2.29    1.00
  WS02006251WS02006249 CONDUIT    478.92     0  02:00      2.03    1.38    1.00
  WS02006252WS02006251 CONDUIT    407.81     0  02:17     24.61    1.50    1.00
  WS02006256WS02006235 CONDUIT    288.91     0  00:00      4.23    3.06    1.00
  WSF200WS02003060     CONDUIT    535.99     0  02:38      2.06    0.12    0.28
  YS02001580YS02001583 CONDUIT     99.79     0  02:07      0.62    0.39    1.00
  YS02001583YS02001586 CONDUIT    151.42     0  02:06      0.64    0.23    1.00
  YS02001586YS02001590 CONDUIT    318.37     0  02:27      1.25    0.56    1.00
  YS02001590YS02001593 CONDUIT    318.02     0  02:27      1.12    2.00    1.00
  YS02001593YS02001596 CONDUIT    317.99     0  02:16      1.74    0.50    1.00
  YS02001596YS02001600 CONDUIT    317.95     0  02:18      1.23    0.62    1.00
  YS02001600YS02001601 CONDUIT    317.96     0  02:27      1.12    0.55    1.00
  YS02001601YS02001602 CONDUIT    509.01     0  02:06      1.80    1.84    1.00
  YS02001602YS02001605 CONDUIT    509.13     0  02:06      1.80   10.77    1.00
  YS02001605YS02001607 CONDUIT    509.26     0  02:06      1.80    2.79    1.00
  YS02001607YS02001610 CONDUIT    512.66     0  02:06      0.65    0.49    1.00
  YS02001610YS02001613 CONDUIT    513.32     0  02:06      0.65    0.59    1.00
  YS02001613YS02001616 CONDUIT    512.35     0  02:06      0.66    0.44    1.00
  YS02001616YS02001619 CONDUIT    514.30     0  02:06      0.66    0.89    1.00
  YS02001619YS02001622 CONDUIT    933.15     0  02:10      1.19    1.38    1.00
  YS02001622YS02001625 CONDUIT    933.29     0  02:10      1.19    0.50    1.00
  YS02001625YS02001629 CONDUIT    932.92     0  02:10      1.19    0.44    1.00
  YS02001629YS02163301 CONDUIT    933.26     0  02:10      1.19    1.15    1.00
  YS02001633YS02163601 CONDUIT   1391.21     0  02:10      1.77    1.46    1.00
  YS02001641YS02001644 CONDUIT   1385.92     0  02:10      1.76    4.48    1.00
  YS02001644YS02001647 CONDUIT   1806.55     0  02:10      2.30    1.06    1.00
  YS02001647YS02001649 CONDUIT   1805.75     0  02:10      2.36    0.95    1.00
  YS02001649YS02001757 CONDUIT   2037.94     0  02:10      2.60    1.24    1.00
  YS02001652YS02001649 CONDUIT    702.84     0  02:14      0.89    0.35    1.00
  YS02001655YS02001652 CONDUIT    702.64     0  02:14      1.28    0.34    1.00
  YS02001658YS02001655 CONDUIT    702.22     0  02:14      1.89    0.30    1.00
  YS02001661YS02001658 CONDUIT    699.78     0  02:14      2.34    0.27    0.97
  YS02001664YS02001661 CONDUIT    791.49     0  02:13      2.34    0.25    0.69
  YS02001745YS02001748 CONDUIT    591.96     0  02:12      2.20    0.23    0.81
  YS02001748YS02001751 CONDUIT    431.91     0  02:13      1.72    0.22    1.00
  YS02001751YS02001754 CONDUIT    432.58     0  02:13      1.43    0.21    1.00
  YS02001754YS02001757 CONDUIT    432.60     0  02:13      0.55    0.17    1.00
  YS02001757CaochengTiaoxuchi CONDUIT   3424.38     0  02:14      4.38    1.48    1.00
  YS02001759YS02001757 CONDUIT   1268.09     0  02:14      1.61    0.90    1.00
  YS02001762YS02001759 CONDUIT    745.16     0  02:14      0.95    0.86    1.00
  YS02001765YS02001762 CONDUIT    745.03     0  02:14      0.95    0.70    1.00
  YS02001767YS02001765 CONDUIT    744.63     0  02:14      0.95    0.94    1.00
  YS02001770YS02001767 CONDUIT    744.01     0  02:14      0.95    2.95    1.00
  YS02001774YS02001770 CONDUIT    343.10     0  02:11      0.44    0.22    1.00
  YS02001779YS02001774 CONDUIT    347.37     0  02:11      0.45    0.18    1.00
  YS02001783YS02001784 CONDUIT   1156.61     0  02:12      2.30    1.59    1.00
  YS02001784YS02001785 CONDUIT   1157.72     0  02:12      2.30    2.69    1.00
  YS02001786YS02001788 CONDUIT   1157.77     0  02:12      2.47    2.23    0.89
  YS02001788YS02001790 CONDUIT   1170.19     0  02:13      2.71    0.86    0.83
  YS02001790YS02001791 CONDUIT   1270.92     0  02:21      3.41    1.38    0.70
  YS02001791YS02001793 CONDUIT   1227.92     0  02:16      6.76    0.53    0.44
  YS02001793JiankangQianchi CONDUIT   1267.10     0  02:20      2.53    0.10    0.64
  YS02001882YS02001884 CONDUIT     36.64     0  02:08      0.11    0.04    1.00
  YS02001884YS02001887 CONDUIT     84.19     0  02:08      0.11    0.11    1.00
  YS02001887YS02001890 CONDUIT    573.67     0  02:13      0.73    0.98    1.00
  YS02001890YS02001895 CONDUIT    514.23     0  02:15      0.65    0.24    1.00
  YS02001895YS02001898 CONDUIT    514.25     0  02:15      0.65    0.89    1.00
  YS02001898YS02001901 CONDUIT    514.26     0  02:15      0.65    0.33    1.00
  YS02001901YS02001904 CONDUIT    514.38     0  02:15      0.65    0.80    1.00
  YS02001904YS02001907 CONDUIT    514.37     0  02:15      0.65    0.18    1.00
  YS02001907YS02006553 CONDUIT    797.61     0  02:26      0.89    0.94    1.00
  YS02001910YS02001907 CONDUIT   1013.48     0  02:12      1.29    0.57    1.00
  YS02001915YS02001910 CONDUIT   1013.49     0  02:12      1.29    0.50    1.00
  YS02001918YS02001915 CONDUIT    434.09     0  02:11      0.55    0.24    1.00
  YS02001920YS02001918 CONDUIT    433.96     0  02:11      0.65    0.42    1.00
  YS02001923YS02001920 CONDUIT    431.11     0  02:11      0.69    0.19    1.00
  YS02001926YS02001923 CONDUIT    412.60     0  02:10      0.96    0.59    1.00
  YS02001929YS02001926 CONDUIT    386.64     0  02:11      1.12    0.18    1.00
  YS02006553YS02006556 CONDUIT    798.00     0  02:26      1.02    0.68    1.00
  YS02006556YS02006558 CONDUIT    800.53     0  02:26      1.02    0.63    1.00
  YS02006558YS02006561 CONDUIT   1165.02     0  02:10      4.12    2.58    1.00
  YS02006561YS02001783 CONDUIT   1156.62     0  02:12      2.30    0.60    1.00
  YS02163301YS02001633 CONDUIT    932.92     0  02:09      1.19    0.88    1.00
  YS02163601YS02164001 CONDUIT   1390.08     0  02:10      1.77    1.23    1.00
  YS02164001YS02001641 CONDUIT   1387.18     0  02:10      1.77    1.89    1.00
  CC-R1                PUMP       683.00     0  00:00              1.00
  CC-R2                PUMP       683.00     0  00:00              1.00
  CC-S1                PUMP       200.00     0  00:00              1.00
  CC-S2                PUMP       200.00     0  00:00              1.00
  JK-R1                PUMP      1000.00     0  00:00              1.00
  JK-R2                PUMP      1000.00     0  00:00              1.00
  JK-S                 PUMP       300.00     0  00:00              1.00
  
  
  ***************************
  Flow Classification Summary
  ***************************
  
  -------------------------------------------------------------------------------------
                      Adjusted    ---------- Fraction of Time in Flow Class ---------- 
                       /Actual         Up    Down  Sub   Sup   Up    Down  Norm  Inlet 
  Conduit               Length    Dry  Dry   Dry   Crit  Crit  Crit  Crit  Ltd   Ctrl  
  -------------------------------------------------------------------------------------
  1                       1.00   0.00  0.00  0.00  0.00  1.00  0.00  0.00  0.44  0.00
  WS02003060WS02003069    1.00   0.00  0.00  0.00  0.99  0.01  0.00  0.00  0.72  0.00
  WS02003066WSF200        1.00   0.12  0.00  0.00  0.00  0.87  0.00  0.00  0.79  0.00
  WS02003067WS02003066    1.00   0.10  0.02  0.00  0.88  0.00  0.00  0.00  0.00  0.00
  WS02003069WS02003072    1.00   0.00  0.00  0.00  0.99  0.01  0.00  0.00  0.74  0.00
  WS02003072WS02003073    1.00   0.00  0.00  0.00  0.00  0.00  0.00  1.00  0.00  0.00
  WS02004401WS02004402    1.00   0.02  0.00  0.00  0.98  0.00  0.00  0.00  0.00  0.00
  WS02004402WS02004403    1.00   0.02  0.00  0.00  0.97  0.00  0.00  0.00  0.00  0.00
  WS02004403WS02004404    1.00   0.00  0.03  0.00  0.97  0.00  0.00  0.00  0.00  0.00
  WS02004404WS02004405    1.00   0.00  0.00  0.00  1.00  0.00  0.00  0.00  0.00  0.00
  WS02004405WS02004406    1.00   0.00  0.00  0.00  1.00  0.00  0.00  0.00  0.00  0.00
  WS02004406WS02004407    1.00   0.00  0.05  0.00  0.95  0.00  0.00  0.00  0.00  0.00
  WS02004407WS02004409    1.00   0.05  0.00  0.00  0.94  0.01  0.00  0.00  0.94  0.00
  WS02004409WS02004410    1.00   0.05  0.00  0.00  0.95  0.00  0.00  0.00  0.03  0.00
  WS02004410WS02004411    1.00   0.05  0.00  0.00  0.95  0.00  0.00  0.00  0.01  0.00
  WS02004411WS02004412    1.00   0.05  0.00  0.00  0.95  0.00  0.00  0.00  0.00  0.00
  WS02004412WS02004413    1.00   0.05  0.00  0.00  0.94  0.00  0.00  0.00  0.01  0.00
  WS02004413WS02003067    1.00   0.06  0.04  0.00  0.00  0.00  0.90  0.00  0.00  0.00
  WS02006109WS02006110    1.00   0.00  0.01  0.00  0.98  0.00  0.01  0.00  0.00  0.00
  WS02006110WS02006113    1.00   0.01  0.01  0.00  0.98  0.00  0.00  0.00  0.00  0.00
  WS02006111WS02006112    1.00   0.02  0.00  0.00  0.98  0.00  0.00  0.00  0.98  0.00
  WS02006112WS02006115    1.00   0.02  0.00  0.00  0.97  0.00  0.00  0.00  0.00  0.00
  WS02006113WS02006111    1.00   0.02  0.00  0.00  0.00  0.98  0.00  0.00  0.12  0.00
  WS02006115WS02006116    1.00   0.02  0.00  0.00  0.97  0.00  0.00  0.01  0.00  0.00
  WS02006116WS02004401    1.00   0.02  0.00  0.00  0.98  0.00  0.00  0.00  0.00  0.00
  WS02006228WS02006109    1.00   0.00  0.00  0.00  1.00  0.00  0.00  0.00  0.00  0.00
  WS02006229WS02006228    1.00   0.00  0.00  0.00  0.99  0.00  0.00  0.01  0.00  0.00
  WS02006230WS02006229    1.00   0.00  0.00  0.00  0.99  0.00  0.00  0.01  0.00  0.00
  WS02006231WS02006230    1.00   0.00  0.00  0.00  0.26  0.00  0.74  0.00  0.00  0.00
  WS02006232WS02006231    1.00   0.00  0.00  0.00  0.99  0.00  0.01  0.00  0.00  0.00
  WS02006234WS02006232    1.00   0.00  0.00  0.00  1.00  0.00  0.00  0.00  0.20  0.00
  WS02006235WS02006234    1.00   0.00  0.00  0.00  0.75  0.00  0.25  0.00  0.00  0.00
  WS02006238WS02006235    1.00   0.00  0.00  0.00  1.00  0.00  0.00  0.00  0.00  0.00
  WS02006239WS02006238    1.00   0.00  0.00  0.00  1.00  0.00  0.00  0.00  0.30  0.00
  WS02006240WS02006239    1.00   0.00  0.00  0.00  0.64  0.00  0.00  0.36  0.03  0.00
  WS02006242WS02006240    1.00   0.00  0.00  0.00  0.98  0.00  0.02  0.00  0.00  0.00
  WS02006243WS02006242    1.00   0.00  0.00  0.00  0.98  0.00  0.00  0.02  0.52  0.00
  WS02006245WS02006243    1.00   0.00  0.00  0.00  0.68  0.00  0.00  0.31  0.01  0.00
  WS02006247WS02006245    1.00   0.00  0.00  0.00  0.98  0.00  0.00  0.02  0.00  0.00
  WS02006248WS02006247    1.00   0.00  0.00  0.00  0.99  0.00  0.00  0.01  0.25  0.00
  WS02006249WS02006248    1.00   0.00  0.00  0.00  0.50  0.00  0.50  0.00  0.00  0.00
  WS02006251WS02006249    1.00   0.00  0.00  0.00  0.99  0.01  0.00  0.00  0.53  0.00
  WS02006252WS02006251    1.00   0.00  0.54  0.00  0.08  0.00  0.38  0.00  0.00  0.00
  WS02006256WS02006235    1.00   0.00  0.00  0.00  1.00  0.00  0.00  0.00  0.00  0.00
  WSF200WS02003060        1.00   0.00  0.12  0.00  0.30  0.58  0.00  0.00  0.49  0.00
  YS02001580YS02001583    1.00   0.26  0.57  0.00  0.17  0.00  0.00  0.00  0.66  0.00
  YS02001583YS02001586    1.00   0.42  0.35  0.00  0.22  0.00  0.00  0.00  0.66  0.00
  YS02001586YS02001590    1.00   0.13  0.00  0.00  0.42  0.04  0.00  0.41  0.38  0.00
  YS02001590YS02001593    1.00   0.13  0.01  0.00  0.09  0.00  0.77  0.00  0.00  0.00
  YS02001593YS02001596    1.00   0.14  0.00  0.00  0.11  0.01  0.00  0.74  0.02  0.00
  YS02001596YS02001600    1.00   0.14  0.00  0.00  0.18  0.01  0.00  0.67  0.05  0.00
  YS02001600YS02001601    1.00   0.13  0.01  0.00  0.86  0.00  0.00  0.00  0.61  0.00
  YS02001601YS02001602    1.00   0.13  0.01  0.00  0.86  0.00  0.00  0.00  0.00  0.00
  YS02001602YS02001605    1.00   0.14  0.00  0.00  0.86  0.00  0.00  0.00  0.00  0.00
  YS02001605YS02001607    1.00   0.14  0.00  0.00  0.86  0.00  0.00  0.00  0.00  0.00
  YS02001607YS02001610    1.00   0.13  0.01  0.00  0.86  0.00  0.00  0.00  0.02  0.00
  YS02001610YS02001613    1.00   0.13  0.00  0.00  0.87  0.00  0.00  0.00  0.01  0.00
  YS02001613YS02001616    1.00   0.13  0.00  0.00  0.87  0.00  0.00  0.00  0.01  0.00
  YS02001616YS02001619    1.00   0.13  0.00  0.00  0.87  0.00  0.00  0.00  0.00  0.00
  YS02001619YS02001622    1.00   0.13  0.00  0.00  0.87  0.00  0.00  0.00  0.29  0.00
  YS02001622YS02001625    1.00   0.13  0.00  0.00  0.87  0.00  0.00  0.00  0.05  0.00
  YS02001625YS02001629    1.00   0.13  0.05  0.00  0.14  0.00  0.68  0.00  0.00  0.00
  YS02001629YS02163301    1.00   0.16  0.01  0.00  0.83  0.00  0.00  0.00  0.00  0.00
  YS02001633YS02163601    1.00   0.00  0.01  0.00  0.99  0.00  0.00  0.00  0.15  0.00
  YS02001641YS02001644    1.00   0.00  0.01  0.00  0.99  0.00  0.00  0.00  0.00  0.00
  YS02001644YS02001647    1.00   0.00  0.18  0.00  0.82  0.00  0.00  0.00  0.00  0.00
  YS02001647YS02001649    1.00   0.00  0.18  0.00  0.52  0.30  0.00  0.00  0.56  0.00
  YS02001649YS02001757    1.00   0.00  0.00  0.00  0.86  0.14  0.00  0.00  0.43  0.00
  YS02001652YS02001649    1.00   0.00  0.00  0.00  0.96  0.04  0.00  0.00  0.75  0.00
  YS02001655YS02001652    1.00   0.00  0.00  0.00  0.17  0.01  0.00  0.82  0.07  0.00
  YS02001658YS02001655    1.00   0.00  0.14  0.00  0.63  0.23  0.00  0.00  0.73  0.00
  YS02001661YS02001658    1.00   0.14  0.00  0.00  0.46  0.39  0.00  0.00  0.73  0.00
  YS02001664YS02001661    1.00   0.13  0.00  0.00  0.76  0.12  0.00  0.00  0.86  0.00
  YS02001745YS02001748    1.00   0.00  0.00  0.00  0.06  0.01  0.00  0.93  0.04  0.00
  YS02001748YS02001751    1.00   0.00  0.00  0.00  0.79  0.21  0.00  0.00  0.78  0.00
  YS02001751YS02001754    1.00   0.00  0.00  0.00  0.14  0.01  0.00  0.86  0.05  0.00
  YS02001754YS02001757    1.00   0.00  0.00  0.00  1.00  0.00  0.00  0.00  0.83  0.00
  YS02001757CaochengTiaoxuchi    1.00   0.00  0.00  0.00  0.95  0.05  0.00  0.00  0.54  0.00
  YS02001759YS02001757    1.00   0.00  0.00  0.00  1.00  0.00  0.00  0.00  0.52  0.00
  YS02001762YS02001759    1.00   0.00  0.00  0.00  1.00  0.00  0.00  0.00  0.06  0.00
  YS02001765YS02001762    1.00   0.00  0.00  0.00  1.00  0.00  0.00  0.00  0.68  0.00
  YS02001767YS02001765    1.00   0.00  0.00  0.00  1.00  0.00  0.00  0.00  0.01  0.00
  YS02001770YS02001767    1.00   0.00  0.00  0.00  1.00  0.00  0.00  0.00  0.00  0.00
  YS02001774YS02001770    1.00   0.00  0.13  0.00  0.70  0.00  0.17  0.00  0.03  0.00
  YS02001779YS02001774    1.00   0.00  0.00  0.00  1.00  0.00  0.00  0.00  0.78  0.00
  YS02001783YS02001784    1.00   0.00  0.19  0.00  0.81  0.00  0.00  0.00  0.56  0.00
  YS02001784YS02001785    1.00   0.00  0.00  0.00  1.00  0.00  0.00  0.00  0.17  0.00
  YS02001786YS02001788    1.00   0.00  0.00  0.00  0.79  0.21  0.00  0.00  0.00  0.00
  YS02001788YS02001790    1.00   0.00  0.00  0.00  0.21  0.79  0.00  0.00  0.81  0.00
  YS02001790YS02001791    1.00   0.00  0.00  0.00  0.01  0.99  0.00  0.00  0.16  0.00
  YS02001791YS02001793    1.00   0.00  0.00  0.00  0.00  1.00  0.00  0.00  0.01  0.00
  YS02001793JiankangQianchi    1.00   0.00  0.00  0.00  0.98  0.02  0.00  0.00  0.98  0.00
  YS02001882YS02001884    1.00   0.15  0.01  0.00  0.84  0.00  0.00  0.00  0.00  0.00
  YS02001884YS02001887    1.00   0.06  0.05  0.00  0.89  0.00  0.00  0.00  0.00  0.00
  YS02001887YS02001890    1.00   0.00  0.00  0.00  0.97  0.00  0.03  0.00  0.00  0.00
  YS02001890YS02001895    1.00   0.00  0.17  0.00  0.83  0.00  0.00  0.00  0.00  0.00
  YS02001895YS02001898    1.00   0.17  0.00  0.00  0.81  0.00  0.02  0.00  0.00  0.00
  YS02001898YS02001901    1.00   0.17  0.00  0.00  0.83  0.00  0.00  0.00  0.01  0.00
  YS02001901YS02001904    1.00   0.17  0.00  0.00  0.83  0.00  0.00  0.00  0.00  0.00
  YS02001904YS02001907    1.00   0.00  0.17  0.00  0.83  0.00  0.00  0.00  0.00  0.00
  YS02001907YS02006553    1.00   0.00  0.02  0.00  0.98  0.00  0.00  0.00  0.00  0.00
  YS02001910YS02001907    1.00   0.00  0.00  0.00  0.97  0.00  0.00  0.03  0.12  0.00
  YS02001915YS02001910    1.00   0.00  0.00  0.00  0.97  0.03  0.00  0.00  0.16  0.00
  YS02001918YS02001915    1.00   0.00  0.01  0.00  0.98  0.02  0.00  0.00  0.76  0.00
  YS02001920YS02001918    1.00   0.00  0.01  0.00  0.99  0.00  0.00  0.00  0.00  0.00
  YS02001923YS02001920    1.00   0.00  0.00  0.00  1.00  0.00  0.00  0.00  0.94  0.00
  YS02001926YS02001923    1.00   0.00  0.07  0.00  0.05  0.00  0.88  0.00  0.00  0.00
  YS02001929YS02001926    1.00   0.00  0.13  0.00  0.87  0.00  0.00  0.00  0.83  0.00
  YS02006553YS02006556    1.00   0.01  0.00  0.00  0.99  0.00  0.00  0.00  0.03  0.00
  YS02006556YS02006558    1.00   0.00  0.00  0.00  1.00  0.00  0.00  0.00  0.00  0.00
  YS02006558YS02006561    1.00   0.18  0.00  0.00  0.04  0.77  0.00  0.00  0.20  0.00
  YS02006561YS02001783    1.00   0.18  0.00  0.00  0.07  0.74  0.00  0.00  0.70  0.00
  YS02163301YS02001633    1.00   0.00  0.16  0.00  0.84  0.00  0.00  0.00  0.00  0.00
  YS02163601YS02164001    1.00   0.00  0.08  0.00  0.92  0.00  0.00  0.00  0.00  0.00
  YS02164001YS02001641    1.00   0.01  0.07  0.00  0.92  0.00  0.00  0.00  0.06  0.00
  
  
  *************************
  Conduit Surcharge Summary
  *************************
  
  ----------------------------------------------------------------------------
                                                           Hours        Hours 
                         --------- Hours Full --------   Above Full   Capacity
  Conduit                Both Ends  Upstream  Dnstream   Normal Flow   Limited
  ----------------------------------------------------------------------------
  WS02003072WS02003073        0.01      0.01      0.01      0.80         0.01
  WS02004404WS02004405        0.01      0.01      0.01      3.31         0.01
  WS02004405WS02004406        0.01      0.01      0.01      0.46         0.01
  WS02006109WS02006110        0.50      0.50      1.94      0.60         0.01
  WS02006110WS02006113        0.01      0.01      1.87      0.01         0.01
  WS02006111WS02006112        0.01      0.01      2.17      0.01         0.01
  WS02006112WS02006115        0.01      0.01      0.49      0.01         0.01
  WS02006228WS02006109        1.81      1.93      1.81      2.28         1.81
  WS02006229WS02006228        1.79      1.82      1.79      2.14         1.78
  WS02006230WS02006229        2.02      2.10      2.02      4.14         2.02
  WS02006231WS02006230        0.51      0.51      0.66      3.69         0.01
  WS02006232WS02006231        0.62      0.62      1.92      0.70         0.01
  WS02006234WS02006232        1.75      1.76      1.92      0.67         0.67
  WS02006235WS02006234        0.92      0.93      1.79      3.52         0.01
  WS02006238WS02006235        1.83      1.83      1.90      0.01         0.01
  WS02006239WS02006238        1.80      1.82      1.86      1.76         1.63
  WS02006240WS02006239        1.75      1.77      1.76      1.75         1.54
  WS02006242WS02006240        1.76      1.76      1.82      1.91         0.01
  WS02006243WS02006242        1.74      1.74      1.80      0.01         0.03
  WS02006245WS02006243        1.72      1.73      1.74      1.21         1.22
  WS02006247WS02006245        1.72      1.73      1.72      3.25         1.71
  WS02006248WS02006247        1.70      1.70      1.72      0.01         0.03
  WS02006249WS02006248        1.69      1.70      1.69      3.19         0.01
  WS02006251WS02006249        1.69      1.69      1.69      1.87         1.63
  WS02006252WS02006251        1.93      1.93      1.94      1.93         0.01
  WS02006256WS02006235        3.52      3.54      5.55      1.16         0.01
  YS02001580YS02001583        0.44      0.44      0.49      0.01         0.01
  YS02001583YS02001586        0.45      0.45      0.57      0.01         0.01
  YS02001586YS02001590        0.58      0.58      0.64      0.01         0.01
  YS02001590YS02001593        0.64      0.64      0.66      0.67         0.01
  YS02001593YS02001596        0.65      0.65      0.75      0.01         0.01
  YS02001596YS02001600        0.80      0.80      0.91      0.01         0.01
  YS02001600YS02001601        0.97      0.97      1.28      0.01         0.01
  YS02001601YS02001602        1.17      1.17      1.32      0.93         0.01
  YS02001602YS02001605        1.11      1.11      1.17      2.18         0.01
  YS02001605YS02001607        1.06      1.11      1.06      1.25         1.06
  YS02001607YS02001610        0.60      0.60      0.63      0.01         0.01
  YS02001610YS02001613        0.60      0.60      0.63      0.01         0.01
  YS02001613YS02001616        0.56      0.56      0.60      0.01         0.01
  YS02001616YS02001619        0.54      0.54      0.56      0.01         0.01
  YS02001619YS02001622        0.54      0.54      0.54      0.68         0.52
  YS02001622YS02001625        0.54      0.54      0.72      0.01         0.01
  YS02001625YS02001629        0.48      0.48      0.72      0.01         0.01
  YS02001629YS02163301        0.70      0.70      0.71      0.24         0.22
  YS02001633YS02163601        0.73      0.73      0.76      0.40         0.40
  YS02001641YS02001644        0.61      0.65      0.61      1.37         0.61
  YS02001644YS02001647        0.40      0.40      0.61      0.04         0.01
  YS02001647YS02001649        0.40      0.40      0.50      0.01         0.01
  YS02001649YS02001757        0.49      0.50      0.54      0.32         0.26
  YS02001652YS02001649        0.35      0.35      0.50      0.01         0.01
  YS02001655YS02001652        0.21      0.21      0.33      0.01         0.01
  YS02001658YS02001655        0.07      0.07      0.21      0.01         0.01
  YS02001661YS02001658        0.01      0.01      0.07      0.01         0.01
  YS02001664YS02001661        0.01      0.01      0.01      0.01         0.01
  YS02001745YS02001748        0.01      0.01      0.01      0.01         0.01
  YS02001748YS02001751        0.03      0.03      0.11      0.01         0.01
  YS02001751YS02001754        0.11      0.11      0.23      0.01         0.01
  YS02001754YS02001757        0.27      0.27      0.54      0.01         0.01
  YS02001757CaochengTiaoxuchi        0.46      0.54      1.64      0.30         0.18
  YS02001759YS02001757        0.45      0.45      0.54      0.01         0.01
  YS02001762YS02001759        0.42      0.42      0.45      0.01         0.01
  YS02001765YS02001762        0.38      0.38      0.42      0.01         0.01
  YS02001767YS02001765        0.36      0.36      0.38      0.01         0.02
  YS02001770YS02001767        0.35      0.36      0.36      0.43         0.27
  YS02001774YS02001770        0.34      0.34      0.40      0.01         0.01
  YS02001779YS02001774        0.24      0.24      0.40      0.01         0.01
  YS02001783YS02001784        0.40      0.42      0.40      0.57         0.40
  YS02001784YS02001785        0.29      0.40      0.29      0.79         0.29
  YS02001786YS02001788        0.01      0.29      0.01      0.67         0.01
  YS02001790YS02001791        0.01      0.01      0.01      0.38         0.01
  YS02001793JiankangQianchi        0.01      0.01      7.29      0.01         0.01
  YS02001882YS02001884        0.37      0.37      0.38      0.01         0.01
  YS02001884YS02001887        0.40      0.40      0.41      0.01         0.01
  YS02001887YS02001890        0.42      0.42      0.43      0.01         0.01
  YS02001890YS02001895        0.36      0.36      0.45      0.01         0.01
  YS02001895YS02001898        0.35      0.35      0.36      0.01         0.01
  YS02001898YS02001901        0.36      0.36      0.40      0.01         0.01
  YS02001901YS02001904        0.39      0.39      0.40      0.01         0.01
  YS02001904YS02001907        0.39      0.39      0.65      0.01         0.01
  YS02001907YS02006553        0.81      0.81      0.88      0.01         0.01
  YS02001910YS02001907        0.45      0.45      0.65      0.01         0.01
  YS02001915YS02001910        0.36      0.36      0.45      0.01         0.01
  YS02001918YS02001915        0.28      0.28      0.36      0.01         0.01
  YS02001920YS02001918        0.28      0.28      0.30      0.01         0.01
  YS02001923YS02001920        0.24      0.24      0.30      0.01         0.01
  YS02001926YS02001923        0.01      0.01      0.01      0.01         0.01
  YS02001929YS02001926        0.01      0.01      0.01      0.01         0.01
  YS02006553YS02006556        0.54      0.54      0.65      0.01         0.01
  YS02006556YS02006558        0.59      0.59      0.67      0.01         0.01
  YS02006558YS02006561        0.31      0.53      0.31      0.75         0.31
  YS02006561YS02001783        0.25      0.25      0.42      0.01         0.01
  YS02163301YS02001633        0.71      0.71      0.75      0.01         0.01
  YS02163601YS02164001        0.66      0.66      0.76      0.09         0.01
  YS02164001YS02001641        0.65      0.66      0.65      0.70         0.57
  
  
  ***************
  Pumping Summary
  ***************
  
  ---------------------------------------------------------------------------------------------------------
                                                  Min       Avg       Max     Total     Power    % Time Off
                        Percent   Number of      Flow      Flow      Flow    Volume     Usage    Pump Curve
  Pump                 Utilized   Start-Ups       LPS       LPS       LPS  10^6 ltr     Kw-hr    Low   High
  ---------------------------------------------------------------------------------------------------------
  CC-R1                   16.59           4      0.00    683.00    683.00     3.263     59.06    0.0   29.8
  CC-R2                   11.46           7      0.00    683.00    683.00     2.254     40.38    0.0   37.9
  CC-S1                   40.77          10      0.00    200.00    200.00     2.349     14.15    0.0    0.0
  CC-S2                   25.19           5      0.00    200.00    200.00     1.451      8.76    0.0    0.0
  JK-R1                    3.78          10      0.00   1000.00   1000.00     1.087     11.80    0.0    0.0
  JK-R2                    4.12          11      0.00   1000.00   1000.00     1.187     10.00    0.0    0.0
  JK-S                    14.43          13      0.00    300.00    300.00     1.247     20.27    0.0    0.0
  

  Analysis begun on:  Tue Apr 15 14:53:57 2025
  Analysis ended on:  Tue Apr 15 14:53:58 2025
  Total elapsed time: 00:00:01