
  EPA STORM WATER MANAGEMENT MODEL - VERSION 5.2 (Build 5.2.4)
  PYSWMM TOOLKIT API - VERSION v1.0 (2023-11-27)
  ------------------------------------------------------------

  WARNING 04: minimum elevation drop used for Conduit WS02004404WS02004405
  WARNING 03: negative offset ignored for Link YS02001904YS02001907
  
  ****************
  Analysis Options
  ****************
  Flow Units ............... LPS
  Process Models:
    Rainfall/Runoff ........ YES
    RDII ................... NO
    Snowmelt ............... NO
    Groundwater ............ NO
    Flow Routing ........... YES
    Ponding Allowed ........ NO
    Water Quality .......... NO
  Infiltration Method ...... HORTON
  Flow Routing Method ...... DYNWAVE
  Surcharge Method ......... EXTRAN
  Starting Date ............ 08/28/2015 08:00:00
  Ending Date .............. 08/28/2015 16:00:00
  Antecedent Dry Days ...... 8.0
  Report Time Step ......... 00:01:00
  Wet Time Step ............ 00:01:00
  Dry Time Step ............ 00:01:00
  Routing Time Step ........ 30.00 sec
  Variable Time Step ....... YES
  Maximum Trials ........... 8
  Number of Threads ........ 4
  Head Tolerance ........... 0.001500 m
  
  
  **************************        Volume         Depth
  Runoff Quantity Continuity     hectare-m            mm
  **************************     ---------       -------
  Total Precipitation ......         1.981        59.716
  Evaporation Loss .........         0.000         0.000
  Infiltration Loss ........         0.101         3.049
  Surface Runoff ...........         1.847        55.682
  Final Storage ............         0.033         0.996
  Continuity Error (%) .....        -0.019
  
  
  **************************        Volume        Volume
  Flow Routing Continuity        hectare-m      10^6 ltr
  **************************     ---------     ---------
  Dry Weather Inflow .......         0.025         0.251
  Wet Weather Inflow .......         1.847        18.471
  Groundwater Inflow .......         0.000         0.000
  RDII Inflow ..............         0.000         0.000
  External Inflow ..........         0.083         0.834
  External Outflow .........         1.414        14.145
  Flooding Loss ............         0.506         5.059
  Evaporation Loss .........         0.000         0.000
  Exfiltration Loss ........         0.000         0.000
  Initial Stored Volume ....         0.243         2.431
  Final Stored Volume ......         0.280         2.798
  Continuity Error (%) .....        -0.069
  
  
  *************************
  Highest Continuity Errors
  *************************
  Node YS02001884 (5.32%)
  Node YS02001583 (-3.43%)
  
  
  ***************************
  Time-Step Critical Elements
  ***************************
  Link WS02006252WS02006251 (56.57%)
  Link WS02004404WS02004405 (14.93%)
  Link WS02006238WS02006235 (10.04%)
  Link WS02006235WS02006234 (4.48%)
  Link YS02001791YS02001793 (4.41%)
  
  
  ********************************
  Highest Flow Instability Indexes
  ********************************
  Link WS02006113WS02006111 (46)
  Link WS02006111WS02006112 (25)
  Link WS02004404WS02004405 (18)
  Link WS02004403WS02004404 (16)
  Link WS02004405WS02004406 (15)
  
  
  *********************************
  Most Frequent Nonconverging Nodes
  *********************************
  Node CC-1 (7.84%)
  Node CC-2 (7.84%)
  Node JK-1 (7.84%)
  Node JK-2 (7.84%)
  Node WSC (7.84%)
  
  
  *************************
  Routing Time Step Summary
  *************************
  Minimum Time Step           :     0.01 sec
  Average Time Step           :     1.86 sec
  Maximum Time Step           :     8.35 sec
  % of Time in Steady State   :     0.00
  Average Iterations per Step :     2.77
  % of Steps Not Converging   :     7.84
  Time Step Frequencies       :
     30.000 - 13.228 sec      :     0.00 %
     13.228 -  5.833 sec      :     9.20 %
      5.833 -  2.572 sec      :    14.51 %
      2.572 -  1.134 sec      :    15.69 %
      1.134 -  0.500 sec      :    60.60 %
  
  
  ***************************
  Subcatchment Runoff Summary
  ***************************
  
  ------------------------------------------------------------------------------------------------------------------------------
                            Total      Total      Total      Total     Imperv       Perv      Total       Total     Peak  Runoff
                           Precip      Runon       Evap      Infil     Runoff     Runoff     Runoff      Runoff   Runoff   Coeff
  Subcatchment                 mm         mm         mm         mm         mm         mm         mm    10^6 ltr      LPS
  ------------------------------------------------------------------------------------------------------------------------------
  sub60                     59.72       0.00       0.00       1.81      51.35       5.36      56.70        0.75   508.97   0.950
  sub61                     59.72       0.00       0.00       2.63      48.43       7.52      55.95        1.03   707.81   0.937
  sub62                     59.72       0.00       0.00       1.21      53.65       3.57      57.22        1.57   997.72   0.958
  sub63                     59.72       0.00       0.00       4.90      41.43      12.42      53.85        1.22   807.41   0.902
  sub64                     59.72       0.00       0.00       2.47      49.55       6.49      56.04        1.35   818.65   0.938
  sub65                     59.72       0.00       0.00       2.14      50.70       5.63      56.32        1.55   914.39   0.943
  sub66                     59.72       0.00       0.00       6.10      41.32      11.22      52.54        2.45  1232.66   0.880
  sub67                     59.72       0.00       0.00       1.15      53.69       3.62      57.32        1.07   757.92   0.960
  sub68                     59.72       0.00       0.00       2.18      50.17       6.18      56.35        1.55  1023.86   0.944
  sub69                     59.72       0.00       0.00       1.97      50.64       6.99      57.64        2.13  1215.65   0.965
  sub70                     59.72       0.00       0.00       6.59      39.24      13.71      52.96        1.53   692.44   0.887
  sub71                     59.72       0.00       0.00       1.24      53.61       3.54      57.15        1.49   882.82   0.957
  sub72                     59.72       0.00       0.00       1.11      54.13       3.07      57.20        0.79   432.35   0.958
  
  
  ******************
  Node Depth Summary
  ******************
  
  ---------------------------------------------------------------------------------
                                 Average  Maximum  Maximum  Time of Max    Reported
                                   Depth    Depth      HGL   Occurrence   Max Depth
  Node                 Type       Meters   Meters   Meters  days hr:min      Meters
  ---------------------------------------------------------------------------------
  WS02003060           JUNCTION     0.24     0.38     5.32     0  03:07        0.38
  WS02003066           JUNCTION     0.20     0.30     5.85     0  03:07        0.30
  WS02003067           JUNCTION     0.50     0.70     6.02     0  03:07        0.70
  WS02003069           JUNCTION     0.26     0.43     5.02     0  03:08        0.43
  WS02003072           JUNCTION     0.32     0.50     4.87     0  03:08        0.50
  WS02003073           JUNCTION     0.18     0.30     4.36     0  03:09        0.30
  WS02004401           JUNCTION     0.60     0.88     6.88     0  03:04        0.88
  WS02004402           JUNCTION     0.64     0.90     6.86     0  03:02        0.90
  WS02004403           JUNCTION     0.66     0.92     6.85     0  03:05        0.92
  WS02004404           JUNCTION     0.74     1.02     6.87     0  02:50        1.01
  WS02004405           JUNCTION     0.72     0.97     6.82     0  02:51        0.97
  WS02004406           JUNCTION     0.73     0.96     6.79     0  02:51        0.96
  WS02004407           JUNCTION     0.18     0.30     6.61     0  03:04        0.30
  WS02004409           JUNCTION     0.39     0.67     6.44     0  03:06        0.67
  WS02004410           JUNCTION     0.42     0.68     6.40     0  03:06        0.68
  WS02004411           JUNCTION     0.44     0.69     6.37     0  03:06        0.69
  WS02004412           JUNCTION     0.46     0.70     6.34     0  03:07        0.70
  WS02004413           JUNCTION     0.62     0.86     6.33     0  03:07        0.86
  WS02006109           JUNCTION     0.66     1.21     7.83     0  02:31        1.03
  WS02006110           JUNCTION     0.66     1.15     7.74     0  02:31        1.02
  WS02006111           JUNCTION     0.18     0.29     6.99     0  03:16        0.29
  WS02006112           JUNCTION     0.76     1.09     6.98     0  02:52        1.07
  WS02006113           JUNCTION     0.28     0.46     7.35     0  03:13        0.46
  WS02006115           JUNCTION     0.49     0.77     6.91     0  02:57        0.77
  WS02006116           JUNCTION     0.57     0.86     6.90     0  03:05        0.86
  WS02006228           JUNCTION     0.65     1.26     7.92     0  02:31        1.06
  WS02006229           JUNCTION     0.62     1.21     7.91     0  02:31        1.18
  WS02006230           JUNCTION     0.61     1.35     8.09     0  02:31        1.18
  WS02006231           JUNCTION     0.42     1.04     8.16     0  02:31        0.93
  WS02006232           JUNCTION     0.56     1.21     8.25     0  02:31        1.13
  WS02006234           JUNCTION     0.48     1.23     8.39     0  02:30        1.18
  WS02006235           JUNCTION     0.52     1.40     8.57     0  02:30        1.36
  WS02006238           JUNCTION     0.54     1.44     8.59     0  02:30        1.40
  WS02006239           JUNCTION     0.51     1.40     8.61     0  02:30        1.40
  WS02006240           JUNCTION     0.47     1.37     8.66     0  02:31        1.37
  WS02006242           JUNCTION     0.54     1.42     8.69     0  02:31        1.42
  WS02006243           JUNCTION     0.44     1.28     8.70     0  02:31        1.28
  WS02006245           JUNCTION     0.43     1.24     8.72     0  02:40        1.22
  WS02006247           JUNCTION     0.45     1.22     8.72     0  02:40        1.20
  WS02006248           JUNCTION     0.41     1.10     8.69     0  02:16        1.10
  WS02006249           JUNCTION     0.44     1.09     8.69     0  02:16        1.09
  WS02006251           JUNCTION     0.44     1.48     9.15     0  02:17        1.13
  WS02006252           JUNCTION     0.33     1.50     9.74     0  00:00        0.71
  WS02006256           JUNCTION     1.06     2.35     9.28     0  00:00        2.35
  WSF200               JUNCTION     0.17     0.29     5.52     0  03:04        0.29
  YS02001580           JUNCTION     0.07     1.05     9.59     0  02:12        0.77
  YS02001583           JUNCTION     0.11     1.14     9.64     0  02:13        0.82
  YS02001586           JUNCTION     0.19     1.13     9.30     0  02:13        1.13
  YS02001590           JUNCTION     0.29     1.40     9.26     0  02:13        1.40
  YS02001593           JUNCTION     0.21     1.33     9.19     0  02:13        1.28
  YS02001596           JUNCTION     0.30     1.69     9.10     0  02:13        1.66
  YS02001600           JUNCTION     0.37     1.87     9.00     0  02:13        1.86
  YS02001601           JUNCTION     0.58     2.06     8.90     0  02:12        2.06
  YS02001602           JUNCTION     0.49     1.87     8.77     0  02:12        1.87
  YS02001605           JUNCTION     0.45     1.78     8.68     0  02:12        1.78
  YS02001607           JUNCTION     0.44     1.67     8.52     0  02:45        1.67
  YS02001610           JUNCTION     0.48     1.68     8.48     0  02:12        1.68
  YS02001613           JUNCTION     0.44     1.69     8.53     0  02:45        1.69
  YS02001616           JUNCTION     0.37     1.61     8.52     0  02:17        1.61
  YS02001619           JUNCTION     0.34     1.61     8.54     0  02:27        1.59
  YS02001622           JUNCTION     0.33     1.58     8.48     0  02:17        1.56
  YS02001625           JUNCTION     0.60     1.78     8.38     0  02:17        1.78
  YS02001629           JUNCTION     0.46     1.85     8.40     0  02:17        1.85
  YS02001633           JUNCTION     0.54     2.08     8.53     0  02:20        2.08
  YS02001641           JUNCTION     0.52     2.04     8.47     0  02:27        2.04
  YS02001644           JUNCTION     0.51     1.92     8.35     0  02:21        1.92
  YS02001647           JUNCTION     0.28     1.78     8.39     0  02:24        1.71
  YS02001649           JUNCTION     0.32     2.03     8.42     0  02:24        1.91
  YS02001652           JUNCTION     0.20     1.90     8.50     0  02:24        1.73
  YS02001655           JUNCTION     0.15     1.75     8.60     0  02:24        1.51
  YS02001658           JUNCTION     0.11     1.56     8.70     0  02:24        1.27
  YS02001661           JUNCTION     0.15     1.38     8.79     0  02:24        1.07
  YS02001664           JUNCTION     0.06     0.50     8.42     0  02:24        0.46
  YS02001745           JUNCTION     0.06     0.77     8.29     0  02:24        0.75
  YS02001748           JUNCTION     0.10     1.49     8.57     0  02:21        1.19
  YS02001751           JUNCTION     0.12     1.51     8.39     0  02:21        1.38
  YS02001754           JUNCTION     0.16     1.68     8.29     0  02:24        1.63
  YS02001757           JUNCTION     0.34     2.05     8.31     0  02:27        1.96
  YS02001759           JUNCTION     0.27     2.10     8.47     0  02:27        1.95
  YS02001762           JUNCTION     0.26     2.13     8.53     0  02:27        1.94
  YS02001765           JUNCTION     0.24     2.10     8.55     0  02:27        1.91
  YS02001767           JUNCTION     0.24     2.03     8.52     0  02:27        1.89
  YS02001770           JUNCTION     0.25     1.95     8.44     0  02:27        1.91
  YS02001774           JUNCTION     0.32     2.01     8.43     0  02:27        1.97
  YS02001779           JUNCTION     0.15     1.68     8.37     0  02:18        1.68
  YS02001783           JUNCTION     0.25     1.27     7.41     0  02:27        1.23
  YS02001784           JUNCTION     0.26     1.15     7.22     0  02:18        1.11
  YS02001786           JUNCTION     0.22     0.90     6.93     0  02:27        0.87
  YS02001788           JUNCTION     0.16     0.62     6.60     0  02:22        0.62
  YS02001790           JUNCTION     0.19     0.72     6.37     0  02:26        0.71
  YS02001791           JUNCTION     0.12     0.44     5.91     0  02:29        0.43
  YS02001793           JUNCTION     0.06     0.30     5.13     0  02:20        0.29
  YS02001882           JUNCTION     0.31     1.76     8.47     0  02:27        1.64
  YS02001884           JUNCTION     0.40     1.83     8.45     0  02:27        1.74
  YS02001887           JUNCTION     0.48     1.86     8.40     0  02:27        1.82
  YS02001890           JUNCTION     0.51     1.81     8.32     0  02:18        1.81
  YS02001895           JUNCTION     0.27     1.57     8.31     0  02:22        1.56
  YS02001898           JUNCTION     0.28     1.57     8.30     0  02:27        1.57
  YS02001901           JUNCTION     0.40     1.68     8.29     0  02:19        1.67
  YS02001904           JUNCTION     0.38     1.66     8.29     0  02:27        1.66
  YS02001907           JUNCTION     0.71     1.96     8.25     0  02:18        1.96
  YS02001910           JUNCTION     0.50     2.01     8.51     0  02:18        1.94
  YS02001915           JUNCTION     0.31     1.96     8.68     0  02:18        1.89
  YS02001918           JUNCTION     0.15     1.81     8.88     0  02:18        1.81
  YS02001920           JUNCTION     0.23     2.14     9.15     0  02:18        2.02
  YS02001923           JUNCTION     0.11     2.03     9.29     0  02:18        1.92
  YS02001926           JUNCTION     0.16     1.90     9.35     0  02:18        1.90
  YS02001929           JUNCTION     0.08     1.78     9.47     0  02:18        1.66
  YS02006553           JUNCTION     0.71     1.99     8.27     0  02:27        1.97
  YS02006556           JUNCTION     0.68     1.98     8.29     0  02:27        1.95
  YS02006558           JUNCTION     0.72     2.03     8.30     0  02:27        2.00
  YS02006561           JUNCTION     0.15     0.97     7.63     0  02:18        0.89
  YS02163301           JUNCTION     0.48     1.96     8.48     0  02:20        1.96
  YS02163601           JUNCTION     0.58     2.06     8.46     0  02:20        2.06
  YS02164001           JUNCTION     0.51     1.95     8.41     0  02:27        1.95
  CC-1                 OUTFALL      0.00     0.00     0.00     0  00:00        0.00
  CC-2                 OUTFALL      0.00     0.00     0.00     0  00:00        0.00
  JK-1                 OUTFALL      0.00     0.00     0.00     0  00:00        0.00
  JK-2                 OUTFALL      0.00     0.00     0.00     0  00:00        0.00
  WSC                  OUTFALL      0.18     0.30     0.97     0  03:09        0.30
  CC-storage           STORAGE      0.87     1.56     7.06     0  02:46        1.56
  JK-storage           STORAGE      2.57     4.22     5.02     0  02:40        4.21
  
  
  *******************
  Node Inflow Summary
  *******************
  
  -------------------------------------------------------------------------------------------------
                                  Maximum  Maximum                  Lateral       Total        Flow
                                  Lateral    Total  Time of Max      Inflow      Inflow     Balance
                                   Inflow   Inflow   Occurrence      Volume      Volume       Error
  Node                 Type           LPS      LPS  days hr:min    10^6 ltr    10^6 ltr     Percent
  -------------------------------------------------------------------------------------------------
  WS02003060           JUNCTION     16.53   555.48     0  03:04       0.476        5.15       0.040
  WS02003066           JUNCTION      0.00   538.83     0  03:07           0        4.68       0.027
  WS02003067           JUNCTION      0.00   538.86     0  03:07           0        4.68       0.087
  WS02003069           JUNCTION      0.32   555.67     0  03:07     0.00922        5.16       0.070
  WS02003072           JUNCTION      0.00   555.62     0  03:08           0        5.15       0.126
  WS02003073           JUNCTION      1.82   557.36     0  03:09      0.0524         5.2       0.101
  WS02004401           JUNCTION      0.00   540.59     0  02:52           0        4.77       0.208
  WS02004402           JUNCTION      0.00   541.53     0  02:52           0        4.76       0.212
  WS02004403           JUNCTION      0.00   540.91     0  02:31           0        4.75       0.207
  WS02004404           JUNCTION      0.16   557.19     0  02:55     0.00467        4.75       0.186
  WS02004405           JUNCTION      0.04   605.57     0  02:51      0.0011        4.74       0.173
  WS02004406           JUNCTION      0.00   545.55     0  02:51           0        4.73       0.430
  WS02004407           JUNCTION      0.00   540.49     0  03:04           0        4.71       0.021
  WS02004409           JUNCTION      0.00   539.76     0  03:04           0        4.71       0.050
  WS02004410           JUNCTION      0.00   539.56     0  03:06           0        4.71       0.085
  WS02004411           JUNCTION      0.00   539.34     0  03:06           0         4.7       0.111
  WS02004412           JUNCTION      0.00   539.08     0  03:06           0         4.7       0.151
  WS02004413           JUNCTION      0.00   539.11     0  03:07           0        4.69       0.271
  WS02006109           JUNCTION      1.23   554.76     0  02:31      0.0354        4.82       0.159
  WS02006110           JUNCTION      0.00   555.62     0  02:31           0        4.81       0.130
  WS02006111           JUNCTION      0.00   560.16     0  03:14           0         4.8       0.017
  WS02006112           JUNCTION      0.00   542.64     0  03:16           0         4.8       0.352
  WS02006113           JUNCTION      0.00   570.12     0  02:41           0         4.8       0.031
  WS02006115           JUNCTION      0.00   552.84     0  02:42           0        4.79       0.132
  WS02006116           JUNCTION      0.00   541.99     0  02:33           0        4.78       0.116
  WS02006228           JUNCTION      0.00   552.65     0  02:40           0        4.79       0.071
  WS02006229           JUNCTION      0.00   553.42     0  02:31           0        4.79       0.106
  WS02006230           JUNCTION     10.28   593.71     0  02:31       0.296         4.8       0.123
  WS02006231           JUNCTION      0.00   573.79     0  02:40           0         4.5      -0.118
  WS02006232           JUNCTION      0.00   573.09     0  02:40           0        4.51       0.244
  WS02006234           JUNCTION      0.00   568.44     0  02:40           0         4.5      -0.206
  WS02006235           JUNCTION      0.00   562.44     0  02:31           0        4.55       0.226
  WS02006238           JUNCTION      0.00   421.68     0  02:35           0        3.55      -0.166
  WS02006239           JUNCTION      0.00   421.03     0  02:30           0        3.53      -0.124
  WS02006240           JUNCTION      0.00   419.29     0  02:30           0        3.51      -0.060
  WS02006242           JUNCTION      0.00   419.30     0  02:30           0        3.49       0.028
  WS02006243           JUNCTION      0.00   418.63     0  02:30           0        3.49       0.139
  WS02006245           JUNCTION      0.00   417.70     0  02:30           0         3.5       0.348
  WS02006247           JUNCTION      0.00   417.25     0  02:30           0         3.5      -0.000
  WS02006248           JUNCTION      0.00   417.74     0  02:30           0         3.5       0.047
  WS02006249           JUNCTION      0.00   459.02     0  00:00           0        3.72       0.359
  WS02006251           JUNCTION      0.08   406.34     0  02:17     0.00222        3.72      -0.022
  WS02006252           JUNCTION      0.00   400.00     0  00:00           0        3.72      -0.065
  WS02006256           JUNCTION      0.00   300.00     0  00:00           0        1.44      -0.476
  WSF200               JUNCTION      0.00   538.86     0  03:07           0        4.67       0.009
  YS02001580           JUNCTION      0.00    75.85     0  02:12           0     0.00413       0.173
  YS02001583           JUNCTION      0.00   126.29     0  02:12           0      0.0157      -3.321
  YS02001586           JUNCTION    692.44   692.46     0  02:26        1.53        1.54       0.065
  YS02001590           JUNCTION      0.00   318.32     0  02:27           0        1.26      -0.033
  YS02001593           JUNCTION      0.00   318.79     0  02:27           0        1.26       0.004
  YS02001596           JUNCTION      0.00   317.97     0  02:36           0        1.26      -0.011
  YS02001600           JUNCTION      0.00   318.13     0  02:21           0        1.26       0.016
  YS02001601           JUNCTION   1215.65  1533.30     0  02:26        2.13        3.39       0.020
  YS02001602           JUNCTION      0.00   495.60     0  02:12           0        2.22       0.019
  YS02001605           JUNCTION      0.00   495.14     0  02:12           0        2.12       0.031
  YS02001607           JUNCTION      0.00   494.86     0  02:12           0        2.12       0.088
  YS02001610           JUNCTION      0.00   658.68     0  02:26           0        2.26       0.098
  YS02001613           JUNCTION      0.00   500.17     0  02:12           0        1.88       0.077
  YS02001616           JUNCTION      0.00   501.75     0  02:12           0        1.88       0.018
  YS02001619           JUNCTION   1232.66  1232.66     0  02:26        2.45        4.18      -0.004
  YS02001622           JUNCTION      0.00   931.01     0  02:17           0        4.03       0.001
  YS02001625           JUNCTION      0.00  1286.44     0  02:26           0        4.18       0.224
  YS02001629           JUNCTION      0.00   930.92     0  02:17           0        3.42       0.030
  YS02001633           JUNCTION    914.59  1363.70     0  02:17        1.56        4.81       0.076
  YS02001641           JUNCTION      0.00  1361.48     0  02:17           0        4.65       0.058
  YS02001644           JUNCTION    818.69  1748.24     0  02:17        1.35        5.99       0.056
  YS02001647           JUNCTION      0.00  1750.79     0  02:17           0        5.74       0.008
  YS02001649           JUNCTION      0.00  1987.10     0  02:18           0        6.96       0.006
  YS02001652           JUNCTION      0.00   830.36     0  02:25           0        1.23      -0.097
  YS02001655           JUNCTION      0.15   830.19     0  02:25     0.00443        1.23      -0.031
  YS02001658           JUNCTION      0.00   829.17     0  02:25           0        1.22       0.002
  YS02001661           JUNCTION      0.00   883.44     0  02:24           0        1.22       0.006
  YS02001664           JUNCTION    807.41   807.41     0  02:25        1.22        1.22      -0.006
  YS02001745           JUNCTION    508.98   508.98     0  02:25       0.745       0.745       0.173
  YS02001748           JUNCTION      0.04   534.34     0  02:21      0.0013       0.746      -0.271
  YS02001751           JUNCTION      0.01   518.55     0  02:24    0.000317       0.749       0.097
  YS02001754           JUNCTION      0.26   518.81     0  02:24     0.00749       0.758      -0.157
  YS02001757           JUNCTION      0.00  3288.15     0  02:23           0        10.2       0.048
  YS02001759           JUNCTION    707.85  1346.58     0  02:24        1.03        2.51      -0.002
  YS02001762           JUNCTION      0.00   740.15     0  02:22           0        1.49       0.010
  YS02001765           JUNCTION      0.00   740.62     0  02:22           0        1.49       0.021
  YS02001767           JUNCTION      0.54   740.60     0  02:22      0.0154        1.49       0.012
  YS02001770           JUNCTION    997.87   997.87     0  02:25        1.57        1.61       0.017
  YS02001774           JUNCTION      0.00   389.63     0  02:25           0       0.161       0.797
  YS02001779           JUNCTION      0.01   389.36     0  02:25    0.000144       0.118      -0.472
  YS02001783           JUNCTION      0.00  1164.17     0  02:23           0        3.88       0.008
  YS02001784           JUNCTION      1.06  1165.53     0  02:23      0.0305        3.91       0.014
  YS02001786           JUNCTION      0.06  1165.02     0  02:23     0.00162        3.91       0.018
  YS02001788           JUNCTION      0.07  1165.17     0  02:27     0.00204        3.91       0.008
  YS02001790           JUNCTION      0.15  1171.44     0  02:25     0.00446        3.92       0.027
  YS02001791           JUNCTION      0.00  1281.45     0  02:26           0        3.92      -0.027
  YS02001793           JUNCTION      0.00  1236.97     0  02:30           0        3.92       0.006
  YS02001882           JUNCTION      0.00    34.95     0  02:15           0      0.0127       5.432
  YS02001884           JUNCTION      0.00    44.27     0  02:15           0      0.0486       5.615
  YS02001887           JUNCTION    758.37   758.40     0  02:25        1.08        1.11       0.408
  YS02001890           JUNCTION      0.00   759.50     0  02:25           0        1.07       0.492
  YS02001895           JUNCTION      0.00   517.46     0  02:28           0        1.01       0.146
  YS02001898           JUNCTION      0.00   517.49     0  02:28           0           1       0.050
  YS02001901           JUNCTION      0.00   517.49     0  02:28           0        1.01       0.321
  YS02001904           JUNCTION      0.00   517.75     0  02:28           0        1.01       0.285
  YS02001907           JUNCTION      0.00  1851.21     0  02:25           0        3.37       0.538
  YS02001910           JUNCTION      0.00  1335.81     0  02:25           0        2.36       0.307
  YS02001915           JUNCTION    882.84  1335.20     0  02:25         1.5        2.39       0.069
  YS02001918           JUNCTION      0.00   454.01     0  02:25           0       0.917       0.010
  YS02001920           JUNCTION      2.87   455.79     0  02:27      0.0827       0.903       0.099
  YS02001923           JUNCTION      0.04   450.26     0  02:25     0.00109       0.808      -0.092
  YS02001926           JUNCTION      0.05   449.03     0  02:25      0.0015       0.794      -0.028
  YS02001929           JUNCTION    432.35   432.35     0  02:26       0.787       0.787      -0.086
  YS02006553           JUNCTION      0.00   800.79     0  02:37           0        2.35       0.515
  YS02006556           JUNCTION      0.00   800.17     0  02:38           0        2.36       0.344
  YS02006558           JUNCTION   1024.74  1168.51     0  02:27        1.58        3.91       0.093
  YS02006561           JUNCTION      0.00  1164.59     0  02:27           0        3.88      -0.003
  YS02163301           JUNCTION      0.00   931.16     0  02:17           0        3.41       0.046
  YS02163601           JUNCTION      0.11  1362.77     0  02:17     0.00317        4.65       0.107
  YS02164001           JUNCTION      0.00  1363.04     0  02:17           0        4.65       0.051
  CC-1                 OUTFALL       0.00   683.00     0  00:00           0        3.56       0.000
  CC-2                 OUTFALL       0.00   683.00     0  00:00           0        2.97       0.000
  JK-1                 OUTFALL       0.00  1000.00     0  00:00           0        1.11       0.000
  JK-2                 OUTFALL       0.00  1000.00     0  00:00           0        1.32       0.000
  WSC                  OUTFALL       0.00   557.19     0  03:09           0        5.19       0.000
  CC-storage           STORAGE       0.00  3287.68     0  02:22           0        12.5      -0.088
  JK-storage           STORAGE       0.00  1252.36     0  02:25           0        4.07       0.186
  
  
  **********************
  Node Surcharge Summary
  **********************
  
  Surcharging occurs when water rises above the top of the highest conduit.
  ---------------------------------------------------------------------
                                               Max. Height   Min. Depth
                                   Hours       Above Crown    Below Rim
  Node                 Type      Surcharged         Meters       Meters
  ---------------------------------------------------------------------
  WS02004404           JUNCTION        0.03          0.024        2.756
  WS02006109           JUNCTION        1.82          0.393        1.427
  WS02006110           JUNCTION        0.73          0.242        1.608
  WS02006112           JUNCTION        0.86          0.093        1.587
  WS02006228           JUNCTION        1.81          0.434        1.766
  WS02006229           JUNCTION        1.84          0.412        2.038
  WS02006230           JUNCTION        0.75          0.269        1.301
  WS02006231           JUNCTION        0.81          0.332        1.198
  WS02006232           JUNCTION        1.88          0.513        0.967
  WS02006234           JUNCTION        1.17          0.509        0.731
  WS02006235           JUNCTION        1.81          0.693        0.597
  WS02006238           JUNCTION        1.85          0.723        0.707
  WS02006239           JUNCTION        1.75          0.664        0.626
  WS02006240           JUNCTION        1.62          0.657        0.733
  WS02006242           JUNCTION        1.72          0.690        0.130
  WS02006243           JUNCTION        1.56          0.574        0.196
  WS02006245           JUNCTION        1.56          0.528        0.322
  WS02006247           JUNCTION        1.57          0.513        0.247
  WS02006248           JUNCTION        1.56          0.380        0.000
  WS02006249           JUNCTION        1.56          0.390        0.000
  WS02006251           JUNCTION        0.85          0.446        0.734
  WS02006252           JUNCTION        1.75          1.100        0.000
  WS02006256           JUNCTION        5.56          2.050        0.000
  YS02001580           JUNCTION        0.56          0.450        0.000
  YS02001583           JUNCTION        0.56          0.500        0.000
  YS02001586           JUNCTION        0.67          0.510        0.000
  YS02001590           JUNCTION        0.75          0.750        0.000
  YS02001593           JUNCTION        0.75          0.707        0.133
  YS02001596           JUNCTION        0.87          0.955        0.115
  YS02001600           JUNCTION        1.02          1.190        0.000
  YS02001601           JUNCTION        1.36          1.440        0.000
  YS02001602           JUNCTION        1.25          1.270        0.000
  YS02001605           JUNCTION        1.19          1.180        0.000
  YS02001607           JUNCTION        0.72          0.670        0.010
  YS02001610           JUNCTION        0.74          0.680        0.000
  YS02001613           JUNCTION        0.71          0.690        0.010
  YS02001616           JUNCTION        0.67          0.610        0.000
  YS02001619           JUNCTION        0.66          0.610        0.000
  YS02001622           JUNCTION        0.65          0.578        0.042
  YS02001625           JUNCTION        0.83          0.780        0.000
  YS02001629           JUNCTION        0.59          0.470        0.000
  YS02001633           JUNCTION        0.85          1.058        0.002
  YS02001641           JUNCTION        0.77          1.037        0.063
  YS02001644           JUNCTION        0.74          0.920        0.000
  YS02001647           JUNCTION        0.51          0.784        0.116
  YS02001649           JUNCTION        0.60          1.028        0.022
  YS02001652           JUNCTION        0.43          0.870        0.260
  YS02001655           JUNCTION        0.32          0.752        0.448
  YS02001658           JUNCTION        0.18          0.562        0.738
  YS02001661           JUNCTION        0.01          0.313        1.077
  YS02001748           JUNCTION        0.11          0.410        0.780
  YS02001751           JUNCTION        0.23          0.508        0.692
  YS02001754           JUNCTION        0.34          0.631        0.519
  YS02001757           JUNCTION        0.66          1.053        0.157
  YS02001759           JUNCTION        0.57          1.104        0.106
  YS02001762           JUNCTION        0.54          1.133        0.017
  YS02001765           JUNCTION        0.49          1.100        0.000
  YS02001767           JUNCTION        0.47          1.030        0.000
  YS02001770           JUNCTION        0.45          0.920        0.000
  YS02001774           JUNCTION        0.52          1.010        0.040
  YS02001779           JUNCTION        0.35          0.680        0.000
  YS02001783           JUNCTION        0.50          0.472        1.128
  YS02001784           JUNCTION        0.47          0.350        1.140
  YS02001786           JUNCTION        0.37          0.104        1.326
  YS02001882           JUNCTION        0.45          0.758        0.072
  YS02001884           JUNCTION        0.45          0.771        0.099
  YS02001887           JUNCTION        0.49          0.810        0.140
  YS02001890           JUNCTION        0.51          0.760        0.000
  YS02001895           JUNCTION        0.43          0.567        0.183
  YS02001898           JUNCTION        0.43          0.540        0.200
  YS02001901           JUNCTION        0.47          0.679        0.191
  YS02001904           JUNCTION        0.47          0.657        0.193
  YS02001907           JUNCTION        0.74          0.950        0.000
  YS02001910           JUNCTION        0.53          1.006        0.094
  YS02001915           JUNCTION        0.44          0.959        0.041
  YS02001918           JUNCTION        0.36          0.810        0.000
  YS02001920           JUNCTION        0.37          1.140        0.000
  YS02001923           JUNCTION        0.06          0.820        0.000
  YS02001926           JUNCTION        0.11          0.900        0.000
  YS02001929           JUNCTION        0.01          0.780        0.000
  YS02006553           JUNCTION        0.76          0.988        0.202
  YS02006556           JUNCTION        0.63          0.943        0.407
  YS02006558           JUNCTION        0.62          0.930        0.470
  YS02006561           JUNCTION        0.32          0.168        0.982
  YS02163301           JUNCTION        0.83          0.959        0.071
  YS02163601           JUNCTION        0.89          1.063        0.017
  YS02164001           JUNCTION        0.78          0.954        0.146
  
  
  *********************
  Node Flooding Summary
  *********************
  
  Flooding refers to all water that overflows a node, whether it ponds or not.
  --------------------------------------------------------------------------
                                                             Total   Maximum
                                 Maximum   Time of Max       Flood    Ponded
                        Hours       Rate    Occurrence      Volume     Depth
  Node                 Flooded       LPS   days hr:min    10^6 ltr    Meters
  --------------------------------------------------------------------------
  WS02006248              0.01     26.88      0  02:16       0.000     0.000
  WS02006249              0.83    114.93      0  02:17       0.206     0.000
  WS02006252              0.01    245.63      0  00:00       0.000     0.000
  WS02006256              1.33    293.19      0  00:00       0.434     0.000
  YS02001580              0.01     41.27      0  02:13       0.000     0.000
  YS02001583              0.01     99.66      0  02:13       0.000     0.000
  YS02001586              0.43    374.94      0  02:26       0.272     0.000
  YS02001590              0.01      3.66      0  02:13       0.000     0.000
  YS02001600              0.01      1.04      0  02:13       0.000     0.000
  YS02001601              0.61   1135.40      0  02:26       1.175     0.000
  YS02001602              0.47     62.01      0  02:26       0.095     0.000
  YS02001605              0.01      1.08      0  02:12       0.000     0.000
  YS02001610              0.41    658.51      0  02:27       0.532     0.000
  YS02001616              0.01      7.82      0  02:27       0.000     0.000
  YS02001625              0.38   1286.31      0  02:26       0.914     0.000
  YS02001629              0.09     82.95      0  02:22       0.016     0.000
  YS02001644              0.16    773.64      0  02:25       0.244     0.000
  YS02001765              0.01     11.90      0  02:27       0.000     0.000
  YS02001767              0.01      5.62      0  02:27       0.000     0.000
  YS02001770              0.01     31.60      0  02:27       0.000     0.000
  YS02001779              0.13    389.27      0  02:25       0.100     0.000
  YS02001890              0.15    243.65      0  02:25       0.060     0.000
  YS02001907              0.31   1706.94      0  02:25       1.010     0.000
  YS02001918              0.01     80.58      0  02:19       0.001     0.000
  YS02001920              0.01     15.92      0  02:18       0.000     0.000
  YS02001923              0.01     65.71      0  02:18       0.000     0.000
  YS02001926              0.01    208.54      0  02:18       0.000     0.000
  YS02001929              0.01    225.38      0  02:18       0.000     0.000
  
  
  **********************
  Storage Volume Summary
  **********************
  
  ------------------------------------------------------------------------------------------------
                         Average    Avg   Evap  Exfil     Maximum    Max    Time of Max    Maximum
                          Volume   Pcnt   Pcnt   Pcnt      Volume   Pcnt     Occurrence    Outflow
  Storage Unit           1000 m³   Full   Loss   Loss     1000 m³   Full    days hr:min        LPS
  ------------------------------------------------------------------------------------------------
  CC-storage               2.424   37.8    0.0    0.0       4.349   67.9       0  02:46    1783.53
  JK-storage               0.129   44.4    0.0    0.0       0.212   72.8       0  02:40    2300.00
  
  
  ***********************
  Outfall Loading Summary
  ***********************
  
  -----------------------------------------------------------
                         Flow       Avg       Max       Total
                         Freq      Flow      Flow      Volume
  Outfall Node           Pcnt       LPS       LPS    10^6 ltr
  -----------------------------------------------------------
  CC-1                  23.70    683.00    683.00       3.556
  CC-2                  19.15    683.00    683.00       2.971
  JK-1                   4.93   1000.00   1000.00       1.109
  JK-2                   6.64   1000.00   1000.00       1.315
  WSC                   99.96    247.52    557.19       5.194
  -----------------------------------------------------------
  System                30.88   3613.52   3896.61      14.145
  
  
  ********************
  Link Flow Summary
  ********************
  
  -----------------------------------------------------------------------------
                                 Maximum  Time of Max   Maximum    Max/    Max/
                                  |Flow|   Occurrence   |Veloc|    Full    Full
  Link                 Type          LPS  days hr:min     m/sec    Flow   Depth
  -----------------------------------------------------------------------------
  1                    CONDUIT    557.19     0  03:09      2.83    0.19    0.30
  WS02003060WS02003069 CONDUIT    555.35     0  03:07      1.64    0.22    0.34
  WS02003066WSF200     CONDUIT    538.86     0  03:07      2.85    0.09    0.22
  WS02003067WS02003066 CONDUIT    538.83     0  03:07      1.21    0.17    0.42
  WS02003069WS02003072 CONDUIT    555.62     0  03:08      1.37    0.27    0.39
  WS02003072WS02003073 CONDUIT    555.54     0  03:09      1.44    1.20    0.37
  WS02004401WS02004402 CONDUIT    541.53     0  02:52      0.98    0.65    0.89
  WS02004402WS02004403 CONDUIT    540.91     0  02:31      0.97    0.78    0.91
  WS02004403WS02004404 CONDUIT    557.03     0  02:55      0.92    0.40    0.96
  WS02004404WS02004405 CONDUIT    605.53     0  02:51      1.08    5.93    0.98
  WS02004405WS02004406 CONDUIT    545.55     0  02:51      0.99    1.08    0.96
  WS02004406WS02004407 CONDUIT    540.49     0  03:04      1.04    0.24    0.63
  WS02004407WS02004409 CONDUIT    539.76     0  03:04      1.46    0.19    0.48
  WS02004409WS02004410 CONDUIT    539.56     0  03:06      0.96    0.70    0.68
  WS02004410WS02004411 CONDUIT    539.34     0  03:06      0.94    0.74    0.69
  WS02004411WS02004412 CONDUIT    539.08     0  03:06      0.92    0.77    0.70
  WS02004412WS02004413 CONDUIT    539.11     0  03:07      0.82    0.36    0.78
  WS02004413WS02003067 CONDUIT    538.86     0  03:07      1.11    0.23    0.59
  WS02006109WS02006110 CONDUIT    555.62     0  02:31      1.11    1.07    1.00
  WS02006110WS02006113 CONDUIT    570.12     0  02:41      1.38    0.52    0.78
  WS02006111WS02006112 CONDUIT    542.64     0  03:16      1.81    0.26    0.67
  WS02006112WS02006115 CONDUIT    552.84     0  02:42      0.78    0.33    0.88
  WS02006113WS02006111 CONDUIT    560.16     0  03:14      2.47    0.67    0.46
  WS02006115WS02006116 CONDUIT    541.99     0  02:33      0.97    0.70    0.78
  WS02006116WS02004401 CONDUIT    540.59     0  02:52      0.98    0.75    0.87
  WS02006228WS02006109 CONDUIT    553.53     0  02:31      1.10    2.42    1.00
  WS02006229WS02006228 CONDUIT    552.65     0  02:40      1.14    1.83    1.00
  WS02006230WS02006229 CONDUIT    553.42     0  02:31      1.44   12.32    1.00
  WS02006231WS02006230 CONDUIT    583.43     0  02:31      1.58    8.85    1.00
  WS02006232WS02006231 CONDUIT    573.79     0  02:40      1.50    1.20    1.00
  WS02006234WS02006232 CONDUIT    573.09     0  02:40      1.49    1.16    1.00
  WS02006235WS02006234 CONDUIT    568.44     0  02:40      1.48    6.00    1.00
  WS02006238WS02006235 CONDUIT    422.58     0  02:35      1.45    0.94    1.00
  WS02006239WS02006238 CONDUIT    421.68     0  02:35      1.17    1.35    1.00
  WS02006240WS02006239 CONDUIT    421.03     0  02:30      1.29    1.32    1.00
  WS02006242WS02006240 CONDUIT    419.29     0  02:30      1.17    1.67    1.00
  WS02006243WS02006242 CONDUIT    419.30     0  02:30      1.40    0.90    1.00
  WS02006245WS02006243 CONDUIT    418.63     0  02:30      1.45    1.24    1.00
  WS02006247WS02006245 CONDUIT    417.70     0  02:30      1.43    3.31    1.00
  WS02006248WS02006247 CONDUIT    417.25     0  02:30      1.44    0.91    1.00
  WS02006249WS02006248 CONDUIT    417.74     0  02:30      1.39    2.29    1.00
  WS02006251WS02006249 CONDUIT    459.02     0  00:00      1.99    1.32    1.00
  WS02006252WS02006251 CONDUIT    406.27     0  02:17     24.61    1.49    1.00
  WS02006256WS02006235 CONDUIT    288.91     0  00:00      4.23    3.06    1.00
  WSF200WS02003060     CONDUIT    538.95     0  03:04      2.06    0.12    0.28
  YS02001580YS02001583 CONDUIT     75.85     0  02:12      0.54    0.29    1.00
  YS02001583YS02001586 CONDUIT    126.29     0  02:12      0.53    0.19    1.00
  YS02001586YS02001590 CONDUIT    318.32     0  02:27      1.25    0.56    1.00
  YS02001590YS02001593 CONDUIT    318.79     0  02:27      1.13    2.00    1.00
  YS02001593YS02001596 CONDUIT    317.97     0  02:36      1.75    0.50    1.00
  YS02001596YS02001600 CONDUIT    318.13     0  02:21      1.26    0.62    1.00
  YS02001600YS02001601 CONDUIT    317.96     0  02:28      1.12    0.55    1.00
  YS02001601YS02001602 CONDUIT    495.60     0  02:12      1.75    1.79    1.00
  YS02001602YS02001605 CONDUIT    495.14     0  02:12      1.75   10.48    1.00
  YS02001605YS02001607 CONDUIT    494.86     0  02:12      1.75    2.71    1.00
  YS02001607YS02001610 CONDUIT    501.24     0  02:11      0.64    0.48    1.00
  YS02001610YS02001613 CONDUIT    500.17     0  02:12      0.64    0.58    1.00
  YS02001613YS02001616 CONDUIT    501.75     0  02:12      0.64    0.43    1.00
  YS02001616YS02001619 CONDUIT    494.99     0  02:12      0.66    0.86    1.00
  YS02001619YS02001622 CONDUIT    931.01     0  02:17      1.19    1.37    1.00
  YS02001622YS02001625 CONDUIT    931.08     0  02:17      1.19    0.50    1.00
  YS02001625YS02001629 CONDUIT    930.92     0  02:17      1.19    0.44    1.00
  YS02001629YS02163301 CONDUIT    931.16     0  02:17      1.19    1.15    1.00
  YS02001633YS02163601 CONDUIT   1362.66     0  02:17      1.73    1.43    1.00
  YS02001641YS02001644 CONDUIT   1361.31     0  02:17      1.73    4.40    1.00
  YS02001644YS02001647 CONDUIT   1750.79     0  02:17      2.24    1.03    1.00
  YS02001647YS02001649 CONDUIT   1760.30     0  02:17      2.33    0.93    1.00
  YS02001649YS02001757 CONDUIT   1988.73     0  02:18      2.57    1.21    1.00
  YS02001652YS02001649 CONDUIT    831.05     0  02:25      1.06    0.41    1.00
  YS02001655YS02001652 CONDUIT    830.36     0  02:25      1.25    0.40    1.00
  YS02001658YS02001655 CONDUIT    830.04     0  02:25      1.84    0.35    1.00
  YS02001661YS02001658 CONDUIT    829.17     0  02:25      2.27    0.33    1.00
  YS02001664YS02001661 CONDUIT    883.44     0  02:24      2.24    0.28    0.75
  YS02001745YS02001748 CONDUIT    534.29     0  02:21      2.11    0.21    0.89
  YS02001748YS02001751 CONDUIT    518.54     0  02:24      1.64    0.26    1.00
  YS02001751YS02001754 CONDUIT    518.55     0  02:24      1.39    0.25    1.00
  YS02001754YS02001757 CONDUIT    518.70     0  02:24      0.66    0.21    1.00
  YS02001757CaochengTiaoxuchi CONDUIT   3287.68     0  02:22      4.19    1.42    1.00
  YS02001759YS02001757 CONDUIT   1346.39     0  02:24      1.71    0.96    1.00
  YS02001762YS02001759 CONDUIT    740.14     0  02:22      0.94    0.85    1.00
  YS02001765YS02001762 CONDUIT    740.15     0  02:22      0.94    0.69    1.00
  YS02001767YS02001765 CONDUIT    740.62     0  02:22      0.94    0.93    1.00
  YS02001770YS02001767 CONDUIT    740.06     0  02:22      0.94    2.93    1.00
  YS02001774YS02001770 CONDUIT    389.63     0  02:25      0.50    0.25    1.00
  YS02001779YS02001774 CONDUIT    389.35     0  02:25      0.50    0.20    1.00
  YS02001783YS02001784 CONDUIT   1164.47     0  02:23      2.32    1.61    1.00
  YS02001784YS02001785 CONDUIT   1164.96     0  02:23      2.32    2.71    1.00
  YS02001786YS02001788 CONDUIT   1165.10     0  02:27      2.49    2.24    0.89
  YS02001788YS02001790 CONDUIT   1171.28     0  02:25      2.72    0.86    0.84
  YS02001790YS02001791 CONDUIT   1281.45     0  02:26      3.42    1.39    0.70
  YS02001791YS02001793 CONDUIT   1236.97     0  02:30      6.71    0.53    0.44
  YS02001793JiankangQianchi CONDUIT   1252.36     0  02:25      2.50    0.10    0.65
  YS02001882YS02001884 CONDUIT     34.95     0  02:15      0.11    0.04    1.00
  YS02001884YS02001887 CONDUIT     44.27     0  02:15      0.08    0.06    1.00
  YS02001887YS02001890 CONDUIT    759.50     0  02:25      0.97    1.30    1.00
  YS02001890YS02001895 CONDUIT    517.46     0  02:28      0.66    0.24    1.00
  YS02001895YS02001898 CONDUIT    517.49     0  02:28      0.66    0.90    1.00
  YS02001898YS02001901 CONDUIT    517.49     0  02:28      0.66    0.33    1.00
  YS02001901YS02001904 CONDUIT    517.75     0  02:28      0.66    0.80    1.00
  YS02001904YS02001907 CONDUIT    517.46     0  02:28      0.66    0.18    1.00
  YS02001907YS02006553 CONDUIT    800.79     0  02:37      0.89    0.94    1.00
  YS02001910YS02001907 CONDUIT   1335.48     0  02:25      1.70    0.75    1.00
  YS02001915YS02001910 CONDUIT   1335.81     0  02:25      1.70    0.66    1.00
  YS02001918YS02001915 CONDUIT    453.85     0  02:25      0.58    0.25    1.00
  YS02001920YS02001918 CONDUIT    454.01     0  02:25      0.67    0.44    1.00
  YS02001923YS02001920 CONDUIT    452.92     0  02:27      0.69    0.20    1.00
  YS02001926YS02001923 CONDUIT    450.23     0  02:25      0.94    0.64    1.00
  YS02001929YS02001926 CONDUIT    448.98     0  02:25      1.08    0.21    1.00
  YS02006553YS02006556 CONDUIT    800.17     0  02:38      1.02    0.68    1.00
  YS02006556YS02006558 CONDUIT    801.37     0  02:38      1.02    0.63    1.00
  YS02006558YS02006561 CONDUIT   1164.59     0  02:27      4.12    2.57    1.00
  YS02006561YS02001783 CONDUIT   1164.17     0  02:23      2.32    0.60    1.00
  YS02163301YS02001633 CONDUIT    930.50     0  02:17      1.18    0.87    1.00
  YS02163601YS02164001 CONDUIT   1363.04     0  02:17      1.74    1.21    1.00
  YS02164001YS02001641 CONDUIT   1361.48     0  02:17      1.73    1.86    1.00
  CC-R1                PUMP       683.00     0  00:00              1.00
  CC-R2                PUMP       683.00     0  00:00              1.00
  CC-S1                PUMP       200.00     0  00:00              1.00
  CC-S2                PUMP       200.00     0  00:00              1.00
  JK-R1                PUMP      1000.00     0  00:00              1.00
  JK-R2                PUMP      1000.00     0  00:00              1.00
  JK-S                 PUMP       300.00     0  00:00              1.00
  
  
  ***************************
  Flow Classification Summary
  ***************************
  
  -------------------------------------------------------------------------------------
                      Adjusted    ---------- Fraction of Time in Flow Class ---------- 
                       /Actual         Up    Down  Sub   Sup   Up    Down  Norm  Inlet 
  Conduit               Length    Dry  Dry   Dry   Crit  Crit  Crit  Crit  Ltd   Ctrl  
  -------------------------------------------------------------------------------------
  1                       1.00   0.00  0.00  0.00  0.00  1.00  0.00  0.00  0.38  0.00
  WS02003060WS02003069    1.00   0.00  0.00  0.00  0.98  0.02  0.00  0.00  0.71  0.00
  WS02003066WSF200        1.00   0.12  0.00  0.00  0.00  0.87  0.00  0.00  0.76  0.00
  WS02003067WS02003066    1.00   0.10  0.02  0.00  0.88  0.00  0.00  0.00  0.00  0.00
  WS02003069WS02003072    1.00   0.00  0.00  0.00  0.99  0.01  0.00  0.00  0.75  0.00
  WS02003072WS02003073    1.00   0.00  0.00  0.00  0.00  0.00  0.00  1.00  0.00  0.00
  WS02004401WS02004402    1.00   0.02  0.00  0.00  0.98  0.00  0.00  0.00  0.00  0.00
  WS02004402WS02004403    1.00   0.02  0.00  0.00  0.97  0.00  0.00  0.00  0.00  0.00
  WS02004403WS02004404    1.00   0.00  0.03  0.00  0.97  0.00  0.00  0.00  0.00  0.00
  WS02004404WS02004405    1.00   0.00  0.00  0.00  1.00  0.00  0.00  0.00  0.01  0.00
  WS02004405WS02004406    1.00   0.00  0.00  0.00  1.00  0.00  0.00  0.00  0.00  0.00
  WS02004406WS02004407    1.00   0.00  0.05  0.00  0.95  0.00  0.00  0.00  0.00  0.00
  WS02004407WS02004409    1.00   0.05  0.00  0.00  0.94  0.01  0.00  0.00  0.94  0.00
  WS02004409WS02004410    1.00   0.05  0.00  0.00  0.95  0.00  0.00  0.00  0.03  0.00
  WS02004410WS02004411    1.00   0.05  0.00  0.00  0.95  0.00  0.00  0.00  0.01  0.00
  WS02004411WS02004412    1.00   0.05  0.00  0.00  0.95  0.00  0.00  0.00  0.00  0.00
  WS02004412WS02004413    1.00   0.05  0.00  0.00  0.94  0.00  0.00  0.00  0.01  0.00
  WS02004413WS02003067    1.00   0.06  0.04  0.00  0.00  0.00  0.90  0.00  0.00  0.00
  WS02006109WS02006110    1.00   0.00  0.01  0.00  0.98  0.00  0.01  0.00  0.00  0.00
  WS02006110WS02006113    1.00   0.01  0.01  0.00  0.98  0.00  0.00  0.00  0.00  0.00
  WS02006111WS02006112    1.00   0.02  0.00  0.00  0.98  0.00  0.00  0.00  0.98  0.00
  WS02006112WS02006115    1.00   0.02  0.00  0.00  0.97  0.00  0.00  0.00  0.00  0.00
  WS02006113WS02006111    1.00   0.02  0.00  0.00  0.00  0.98  0.00  0.00  0.12  0.00
  WS02006115WS02006116    1.00   0.02  0.00  0.00  0.97  0.00  0.00  0.01  0.00  0.00
  WS02006116WS02004401    1.00   0.02  0.00  0.00  0.98  0.00  0.00  0.00  0.00  0.00
  WS02006228WS02006109    1.00   0.00  0.00  0.00  1.00  0.00  0.00  0.00  0.00  0.00
  WS02006229WS02006228    1.00   0.00  0.00  0.00  0.99  0.00  0.00  0.01  0.00  0.00
  WS02006230WS02006229    1.00   0.00  0.00  0.00  0.99  0.00  0.00  0.01  0.01  0.00
  WS02006231WS02006230    1.00   0.00  0.00  0.00  0.24  0.00  0.75  0.00  0.00  0.00
  WS02006232WS02006231    1.00   0.00  0.00  0.00  0.98  0.00  0.01  0.00  0.00  0.00
  WS02006234WS02006232    1.00   0.00  0.00  0.00  1.00  0.00  0.00  0.00  0.13  0.00
  WS02006235WS02006234    1.00   0.00  0.00  0.00  0.80  0.00  0.20  0.00  0.00  0.00
  WS02006238WS02006235    1.00   0.00  0.00  0.00  1.00  0.00  0.00  0.00  0.00  0.00
  WS02006239WS02006238    1.00   0.00  0.00  0.00  1.00  0.00  0.00  0.00  0.30  0.00
  WS02006240WS02006239    1.00   0.00  0.00  0.00  0.62  0.00  0.00  0.38  0.03  0.00
  WS02006242WS02006240    1.00   0.00  0.00  0.00  0.98  0.00  0.02  0.00  0.00  0.00
  WS02006243WS02006242    1.00   0.00  0.00  0.00  0.98  0.00  0.00  0.02  0.52  0.00
  WS02006245WS02006243    1.00   0.00  0.00  0.00  0.69  0.00  0.00  0.30  0.01  0.00
  WS02006247WS02006245    1.00   0.00  0.00  0.00  0.98  0.00  0.00  0.02  0.00  0.00
  WS02006248WS02006247    1.00   0.00  0.00  0.00  0.99  0.00  0.00  0.01  0.26  0.00
  WS02006249WS02006248    1.00   0.00  0.00  0.00  0.48  0.00  0.52  0.00  0.00  0.00
  WS02006251WS02006249    1.00   0.00  0.00  0.00  1.00  0.00  0.00  0.00  0.54  0.00
  WS02006252WS02006251    1.00   0.00  0.57  0.00  0.11  0.00  0.32  0.00  0.00  0.00
  WS02006256WS02006235    1.00   0.00  0.00  0.00  0.99  0.01  0.00  0.00  0.00  0.00
  WSF200WS02003060        1.00   0.00  0.12  0.00  0.36  0.51  0.00  0.00  0.51  0.00
  YS02001580YS02001583    1.00   0.27  0.54  0.00  0.19  0.00  0.00  0.00  0.63  0.00
  YS02001583YS02001586    1.00   0.41  0.35  0.00  0.24  0.00  0.00  0.00  0.64  0.00
  YS02001586YS02001590    1.00   0.13  0.00  0.00  0.44  0.04  0.00  0.39  0.39  0.00
  YS02001590YS02001593    1.00   0.13  0.01  0.00  0.11  0.00  0.76  0.00  0.00  0.00
  YS02001593YS02001596    1.00   0.13  0.00  0.00  0.13  0.01  0.00  0.73  0.02  0.00
  YS02001596YS02001600    1.00   0.14  0.00  0.00  0.19  0.02  0.00  0.65  0.05  0.00
  YS02001600YS02001601    1.00   0.13  0.01  0.00  0.86  0.00  0.00  0.00  0.60  0.00
  YS02001601YS02001602    1.00   0.13  0.01  0.00  0.87  0.00  0.00  0.00  0.00  0.00
  YS02001602YS02001605    1.00   0.14  0.00  0.00  0.86  0.00  0.00  0.00  0.00  0.00
  YS02001605YS02001607    1.00   0.14  0.00  0.00  0.86  0.00  0.00  0.00  0.00  0.00
  YS02001607YS02001610    1.00   0.13  0.01  0.00  0.86  0.00  0.00  0.00  0.02  0.00
  YS02001610YS02001613    1.00   0.13  0.00  0.00  0.87  0.00  0.00  0.00  0.01  0.00
  YS02001613YS02001616    1.00   0.13  0.00  0.00  0.87  0.00  0.00  0.00  0.00  0.00
  YS02001616YS02001619    1.00   0.13  0.00  0.00  0.87  0.00  0.00  0.00  0.00  0.00
  YS02001619YS02001622    1.00   0.13  0.00  0.00  0.87  0.00  0.00  0.00  0.28  0.00
  YS02001622YS02001625    1.00   0.13  0.00  0.00  0.87  0.00  0.00  0.00  0.05  0.00
  YS02001625YS02001629    1.00   0.13  0.05  0.00  0.15  0.00  0.67  0.00  0.00  0.00
  YS02001629YS02163301    1.00   0.15  0.01  0.00  0.83  0.00  0.00  0.00  0.00  0.00
  YS02001633YS02163601    1.00   0.00  0.01  0.00  0.99  0.00  0.00  0.00  0.15  0.00
  YS02001641YS02001644    1.00   0.00  0.01  0.00  0.99  0.00  0.00  0.00  0.00  0.00
  YS02001644YS02001647    1.00   0.00  0.18  0.00  0.82  0.00  0.00  0.00  0.00  0.00
  YS02001647YS02001649    1.00   0.00  0.17  0.00  0.51  0.32  0.00  0.00  0.55  0.00
  YS02001649YS02001757    1.00   0.00  0.00  0.00  0.79  0.21  0.00  0.00  0.40  0.00
  YS02001652YS02001649    1.00   0.00  0.00  0.00  0.96  0.04  0.00  0.00  0.75  0.00
  YS02001655YS02001652    1.00   0.00  0.00  0.00  0.17  0.01  0.00  0.82  0.06  0.00
  YS02001658YS02001655    1.00   0.00  0.14  0.00  0.64  0.22  0.00  0.00  0.71  0.00
  YS02001661YS02001658    1.00   0.14  0.00  0.00  0.48  0.38  0.00  0.00  0.71  0.00
  YS02001664YS02001661    1.00   0.13  0.00  0.00  0.76  0.11  0.00  0.00  0.86  0.00
  YS02001745YS02001748    1.00   0.00  0.00  0.00  0.07  0.01  0.00  0.92  0.04  0.00
  YS02001748YS02001751    1.00   0.00  0.00  0.00  0.80  0.20  0.00  0.00  0.75  0.00
  YS02001751YS02001754    1.00   0.00  0.00  0.00  0.14  0.01  0.00  0.86  0.03  0.00
  YS02001754YS02001757    1.00   0.00  0.00  0.00  1.00  0.00  0.00  0.00  0.84  0.00
  YS02001757CaochengTiaoxuchi    1.00   0.00  0.00  0.00  0.96  0.04  0.00  0.00  0.58  0.00
  YS02001759YS02001757    1.00   0.00  0.00  0.00  1.00  0.00  0.00  0.00  0.54  0.00
  YS02001762YS02001759    1.00   0.00  0.00  0.00  1.00  0.00  0.00  0.00  0.06  0.00
  YS02001765YS02001762    1.00   0.00  0.00  0.00  1.00  0.00  0.00  0.00  0.69  0.00
  YS02001767YS02001765    1.00   0.00  0.00  0.00  1.00  0.00  0.00  0.00  0.01  0.00
  YS02001770YS02001767    1.00   0.00  0.00  0.00  1.00  0.00  0.00  0.00  0.00  0.00
  YS02001774YS02001770    1.00   0.00  0.13  0.00  0.70  0.00  0.16  0.00  0.03  0.00
  YS02001779YS02001774    1.00   0.00  0.00  0.00  1.00  0.00  0.00  0.00  0.78  0.00
  YS02001783YS02001784    1.00   0.00  0.18  0.00  0.82  0.00  0.00  0.00  0.55  0.00
  YS02001784YS02001785    1.00   0.00  0.00  0.00  1.00  0.00  0.00  0.00  0.17  0.00
  YS02001786YS02001788    1.00   0.00  0.00  0.00  0.79  0.21  0.00  0.00  0.00  0.00
  YS02001788YS02001790    1.00   0.00  0.00  0.00  0.21  0.79  0.00  0.00  0.80  0.00
  YS02001790YS02001791    1.00   0.00  0.00  0.00  0.01  0.99  0.00  0.00  0.16  0.00
  YS02001791YS02001793    1.00   0.00  0.00  0.00  0.00  1.00  0.00  0.00  0.01  0.00
  YS02001793JiankangQianchi    1.00   0.00  0.00  0.00  0.97  0.03  0.00  0.00  0.97  0.00
  YS02001882YS02001884    1.00   0.15  0.01  0.00  0.84  0.00  0.00  0.00  0.00  0.00
  YS02001884YS02001887    1.00   0.06  0.05  0.00  0.89  0.00  0.00  0.00  0.00  0.00
  YS02001887YS02001890    1.00   0.00  0.00  0.00  0.97  0.00  0.03  0.00  0.00  0.00
  YS02001890YS02001895    1.00   0.00  0.16  0.00  0.83  0.00  0.00  0.00  0.00  0.00
  YS02001895YS02001898    1.00   0.17  0.00  0.00  0.81  0.00  0.02  0.00  0.00  0.00
  YS02001898YS02001901    1.00   0.17  0.00  0.00  0.83  0.00  0.00  0.00  0.01  0.00
  YS02001901YS02001904    1.00   0.17  0.00  0.00  0.83  0.00  0.00  0.00  0.00  0.00
  YS02001904YS02001907    1.00   0.00  0.16  0.00  0.83  0.00  0.00  0.00  0.00  0.00
  YS02001907YS02006553    1.00   0.00  0.02  0.00  0.98  0.00  0.00  0.00  0.00  0.00
  YS02001910YS02001907    1.00   0.00  0.00  0.00  0.97  0.00  0.00  0.03  0.12  0.00
  YS02001915YS02001910    1.00   0.00  0.00  0.00  0.97  0.03  0.00  0.00  0.16  0.00
  YS02001918YS02001915    1.00   0.00  0.01  0.00  0.98  0.02  0.00  0.00  0.75  0.00
  YS02001920YS02001918    1.00   0.00  0.01  0.00  0.99  0.00  0.00  0.00  0.00  0.00
  YS02001923YS02001920    1.00   0.00  0.00  0.00  1.00  0.00  0.00  0.00  0.93  0.00
  YS02001926YS02001923    1.00   0.00  0.07  0.00  0.06  0.00  0.87  0.00  0.00  0.00
  YS02001929YS02001926    1.00   0.00  0.13  0.00  0.87  0.00  0.00  0.00  0.83  0.00
  YS02006553YS02006556    1.00   0.01  0.00  0.00  0.99  0.00  0.00  0.00  0.03  0.00
  YS02006556YS02006558    1.00   0.00  0.00  0.00  1.00  0.00  0.00  0.00  0.00  0.00
  YS02006558YS02006561    1.00   0.18  0.00  0.00  0.05  0.77  0.00  0.00  0.18  0.00
  YS02006561YS02001783    1.00   0.18  0.00  0.00  0.09  0.73  0.00  0.00  0.68  0.00
  YS02163301YS02001633    1.00   0.00  0.15  0.00  0.85  0.00  0.00  0.00  0.00  0.00
  YS02163601YS02164001    1.00   0.00  0.08  0.00  0.92  0.00  0.00  0.00  0.00  0.00
  YS02164001YS02001641    1.00   0.01  0.07  0.00  0.92  0.00  0.00  0.00  0.06  0.00
  
  
  *************************
  Conduit Surcharge Summary
  *************************
  
  ----------------------------------------------------------------------------
                                                           Hours        Hours 
                         --------- Hours Full --------   Above Full   Capacity
  Conduit                Both Ends  Upstream  Dnstream   Normal Flow   Limited
  ----------------------------------------------------------------------------
  WS02003072WS02003073        0.01      0.01      0.01      1.09         0.01
  WS02004403WS02004404        0.01      0.01      0.03      0.01         0.01
  WS02004404WS02004405        0.01      0.03      0.01      3.42         0.01
  WS02004405WS02004406        0.01      0.01      0.01      0.72         0.01
  WS02006109WS02006110        0.73      0.73      1.88      0.80         0.01
  WS02006110WS02006113        0.01      0.01      1.85      0.01         0.01
  WS02006111WS02006112        0.01      0.01      2.06      0.01         0.01
  WS02006112WS02006115        0.01      0.01      0.86      0.01         0.01
  WS02006228WS02006109        1.82      1.87      1.82      2.16         1.82
  WS02006229WS02006228        1.81      1.84      1.81      1.99         1.81
  WS02006230WS02006229        1.92      1.97      1.92      3.88         1.92
  WS02006231WS02006230        0.75      0.75      0.84      3.61         0.01
  WS02006232WS02006231        0.80      0.80      1.88      0.84         0.01
  WS02006234WS02006232        1.77      1.77      1.88      0.83         0.83
  WS02006235WS02006234        1.17      1.17      1.81      3.52         0.01
  WS02006238WS02006235        1.83      1.83      1.88      0.01         0.01
  WS02006239WS02006238        1.82      1.82      1.85      1.63         1.45
  WS02006240WS02006239        1.67      1.67      1.75      1.64         1.38
  WS02006242WS02006240        1.62      1.62      1.78      1.75         0.01
  WS02006243WS02006242        1.57      1.57      1.72      0.01         0.02
  WS02006245WS02006243        1.56      1.57      1.56      0.89         0.90
  WS02006247WS02006245        1.56      1.57      1.56      3.36         1.56
  WS02006248WS02006247        1.56      1.56      1.57      0.01         0.02
  WS02006249WS02006248        1.56      1.56      1.56      3.31         0.01
  WS02006251WS02006249        1.56      1.56      1.56      1.70         1.52
  WS02006252WS02006251        1.74      1.74      1.75      1.75         0.01
  WS02006256WS02006235        3.54      3.57      5.54      1.34         0.01
  YS02001580YS02001583        0.56      0.56      0.60      0.01         0.01
  YS02001583YS02001586        0.56      0.56      0.67      0.01         0.01
  YS02001586YS02001590        0.68      0.68      0.75      0.01         0.01
  YS02001590YS02001593        0.75      0.75      0.77      0.77         0.01
  YS02001593YS02001596        0.76      0.76      0.87      0.01         0.01
  YS02001596YS02001600        0.92      0.92      1.02      0.01         0.01
  YS02001600YS02001601        1.08      1.08      1.36      0.01         0.01
  YS02001601YS02001602        1.25      1.25      1.41      1.04         0.01
  YS02001602YS02001605        1.19      1.19      1.25      2.32         0.01
  YS02001605YS02001607        1.15      1.19      1.15      1.32         1.15
  YS02001607YS02001610        0.72      0.72      0.74      0.01         0.01
  YS02001610YS02001613        0.71      0.71      0.74      0.01         0.01
  YS02001613YS02001616        0.67      0.67      0.71      0.01         0.01
  YS02001616YS02001619        0.66      0.66      0.67      0.01         0.01
  YS02001619YS02001622        0.65      0.66      0.65      0.78         0.63
  YS02001622YS02001625        0.65      0.65      0.83      0.01         0.01
  YS02001625YS02001629        0.60      0.60      0.83      0.01         0.01
  YS02001629YS02163301        0.82      0.82      0.83      0.25         0.24
  YS02001633YS02163601        0.85      0.85      0.89      0.38         0.39
  YS02001641YS02001644        0.74      0.77      0.74      1.46         0.73
  YS02001644YS02001647        0.51      0.51      0.74      0.03         0.01
  YS02001647YS02001649        0.51      0.51      0.60      0.01         0.01
  YS02001649YS02001757        0.60      0.60      0.66      0.14         0.10
  YS02001652YS02001649        0.45      0.45      0.60      0.01         0.01
  YS02001655YS02001652        0.31      0.31      0.43      0.01         0.01
  YS02001658YS02001655        0.18      0.18      0.31      0.01         0.01
  YS02001661YS02001658        0.01      0.01      0.18      0.01         0.01
  YS02001664YS02001661        0.01      0.01      0.05      0.01         0.01
  YS02001745YS02001748        0.01      0.01      0.11      0.01         0.01
  YS02001748YS02001751        0.16      0.16      0.23      0.01         0.01
  YS02001751YS02001754        0.23      0.23      0.34      0.01         0.01
  YS02001754YS02001757        0.38      0.38      0.66      0.01         0.01
  YS02001757CaochengTiaoxuchi        0.62      0.66      1.43      0.38         0.28
  YS02001759YS02001757        0.57      0.57      0.66      0.01         0.01
  YS02001762YS02001759        0.54      0.54      0.57      0.01         0.02
  YS02001765YS02001762        0.49      0.49      0.54      0.01         0.01
  YS02001767YS02001765        0.47      0.47      0.49      0.01         0.03
  YS02001770YS02001767        0.46      0.46      0.47      0.52         0.36
  YS02001774YS02001770        0.45      0.45      0.52      0.01         0.01
  YS02001779YS02001774        0.35      0.35      0.52      0.01         0.01
  YS02001783YS02001784        0.47      0.50      0.47      0.66         0.47
  YS02001784YS02001785        0.36      0.47      0.36      0.90         0.36
  YS02001786YS02001788        0.01      0.36      0.01      0.78         0.01
  YS02001790YS02001791        0.01      0.01      0.01      0.46         0.01
  YS02001793JiankangQianchi        0.01      0.01      7.31      0.01         0.01
  YS02001882YS02001884        0.45      0.45      0.45      0.01         0.01
  YS02001884YS02001887        0.48      0.48      0.49      0.01         0.01
  YS02001887YS02001890        0.51      0.51      0.52      0.09         0.01
  YS02001890YS02001895        0.43      0.43      0.53      0.01         0.01
  YS02001895YS02001898        0.43      0.43      0.43      0.01         0.01
  YS02001898YS02001901        0.44      0.44      0.47      0.01         0.01
  YS02001901YS02001904        0.47      0.47      0.47      0.01         0.01
  YS02001904YS02001907        0.47      0.47      0.76      0.01         0.01
  YS02001907YS02006553        0.92      0.92      0.99      0.01         0.01
  YS02001910YS02001907        0.53      0.53      0.74      0.01         0.01
  YS02001915YS02001910        0.44      0.44      0.53      0.01         0.01
  YS02001918YS02001915        0.36      0.36      0.44      0.01         0.01
  YS02001920YS02001918        0.36      0.36      0.37      0.01         0.01
  YS02001923YS02001920        0.32      0.32      0.37      0.01         0.01
  YS02001926YS02001923        0.06      0.06      0.11      0.01         0.01
  YS02001929YS02001926        0.01      0.01      0.11      0.01         0.01
  YS02006553YS02006556        0.63      0.63      0.76      0.01         0.01
  YS02006556YS02006558        0.70      0.70      0.77      0.01         0.01
  YS02006558YS02006561        0.39      0.62      0.39      0.86         0.39
  YS02006561YS02001783        0.32      0.32      0.50      0.01         0.01
  YS02163301YS02001633        0.83      0.83      0.87      0.01         0.01
  YS02163601YS02164001        0.78      0.78      0.89      0.12         0.01
  YS02164001YS02001641        0.77      0.78      0.77      0.71         0.59
  
  
  ***************
  Pumping Summary
  ***************
  
  ---------------------------------------------------------------------------------------------------------
                                                  Min       Avg       Max     Total     Power    % Time Off
                        Percent   Number of      Flow      Flow      Flow    Volume     Usage    Pump Curve
  Pump                 Utilized   Start-Ups       LPS       LPS       LPS  10^6 ltr     Kw-hr    Low   High
  ---------------------------------------------------------------------------------------------------------
  CC-R1                   18.08           4      0.00    683.00    683.00     3.556     64.47    0.0   30.9
  CC-R2                   15.11           8      0.00    683.00    683.00     2.973     54.54    0.0   24.2
  CC-S1                   38.33           6      0.00    200.00    200.00     2.208     13.21    0.0    0.0
  CC-S2                   26.20           5      0.00    200.00    200.00     1.509      9.13    0.0    0.0
  JK-R1                    3.85          14      0.00   1000.00   1000.00     1.109     10.30    0.0    0.0
  JK-R2                    4.56          12      0.00   1000.00   1000.00     1.314     12.96    0.0    0.0
  JK-S                    16.68          11      0.00    300.00    300.00     1.441     24.63    0.0    0.0
  

  Analysis begun on:  Tue Apr 15 14:53:32 2025
  Analysis ended on:  Tue Apr 15 14:53:34 2025
  Total elapsed time: 00:00:02