
  EPA STORM WATER MANAGEMENT MODEL - VERSION 5.2 (Build 5.2.4)
  PYSWMM TOOLKIT API - VERSION v1.0 (2023-11-27)
  ------------------------------------------------------------

  WARNING 04: minimum elevation drop used for Conduit WS02004404WS02004405
  WARNING 03: negative offset ignored for Link YS02001904YS02001907
  
  ****************
  Analysis Options
  ****************
  Flow Units ............... LPS
  Process Models:
    Rainfall/Runoff ........ YES
    RDII ................... NO
    Snowmelt ............... NO
    Groundwater ............ NO
    Flow Routing ........... YES
    Ponding Allowed ........ NO
    Water Quality .......... NO
  Infiltration Method ...... HORTON
  Flow Routing Method ...... DYNWAVE
  Surcharge Method ......... EXTRAN
  Starting Date ............ 08/28/2015 08:00:00
  Ending Date .............. 08/28/2015 16:00:00
  Antecedent Dry Days ...... 8.0
  Report Time Step ......... 00:01:00
  Wet Time Step ............ 00:01:00
  Dry Time Step ............ 00:01:00
  Routing Time Step ........ 30.00 sec
  Variable Time Step ....... YES
  Maximum Trials ........... 8
  Number of Threads ........ 4
  Head Tolerance ........... 0.001500 m
  
  
  **************************        Volume         Depth
  Runoff Quantity Continuity     hectare-m            mm
  **************************     ---------       -------
  Total Precipitation ......         2.381        71.775
  Evaporation Loss .........         0.000         0.000
  Infiltration Loss ........         0.104         3.136
  Surface Runoff ...........         2.244        67.656
  Final Storage ............         0.033         0.997
  Continuity Error (%) .....        -0.019
  
  
  **************************        Volume        Volume
  Flow Routing Continuity        hectare-m      10^6 ltr
  **************************     ---------     ---------
  Dry Weather Inflow .......         0.025         0.251
  Wet Weather Inflow .......         2.244        22.443
  Groundwater Inflow .......         0.000         0.000
  RDII Inflow ..............         0.000         0.000
  External Inflow ..........         0.083         0.834
  External Outflow .........         1.590        15.896
  Flooding Loss ............         0.732         7.322
  Evaporation Loss .........         0.000         0.000
  Exfiltration Loss ........         0.000         0.000
  Initial Stored Volume ....         0.243         2.431
  Final Stored Volume ......         0.277         2.768
  Continuity Error (%) .....        -0.106
  
  
  *************************
  Highest Continuity Errors
  *************************
  Node YS02001884 (5.07%)
  Node YS02001583 (-3.37%)
  
  
  ***************************
  Time-Step Critical Elements
  ***************************
  Link WS02006252WS02006251 (53.15%)
  Link WS02006238WS02006235 (12.64%)
  Link WS02004404WS02004405 (10.23%)
  Link WS02006235WS02006234 (7.00%)
  Link YS02001791YS02001793 (5.98%)
  
  
  ********************************
  Highest Flow Instability Indexes
  ********************************
  Link WS02006113WS02006111 (46)
  Link WS02006111WS02006112 (25)
  Link WS02006256WS02006235 (14)
  Link WS02006238WS02006235 (14)
  Link WS02006252WS02006251 (13)
  
  
  *********************************
  Most Frequent Nonconverging Nodes
  *********************************
  Node CC-1 (8.78%)
  Node CC-2 (8.78%)
  Node JK-1 (8.78%)
  Node JK-2 (8.78%)
  Node WSC (8.78%)
  
  
  *************************
  Routing Time Step Summary
  *************************
  Minimum Time Step           :     0.00 sec
  Average Time Step           :     1.81 sec
  Maximum Time Step           :     8.35 sec
  % of Time in Steady State   :     0.00
  Average Iterations per Step :     2.85
  % of Steps Not Converging   :     8.78
  Time Step Frequencies       :
     30.000 - 13.228 sec      :     0.00 %
     13.228 -  5.833 sec      :     7.43 %
      5.833 -  2.572 sec      :    17.07 %
      2.572 -  1.134 sec      :    17.29 %
      1.134 -  0.500 sec      :    58.20 %
  
  
  ***************************
  Subcatchment Runoff Summary
  ***************************
  
  ------------------------------------------------------------------------------------------------------------------------------
                            Total      Total      Total      Total     Imperv       Perv      Total       Total     Peak  Runoff
                           Precip      Runon       Evap      Infil     Runoff     Runoff     Runoff      Runoff   Runoff   Coeff
  Subcatchment                 mm         mm         mm         mm         mm         mm         mm    10^6 ltr      LPS
  ------------------------------------------------------------------------------------------------------------------------------
  sub60                     71.78       0.00       0.00       1.86      61.96       6.76      68.72        0.90   596.95   0.957
  sub61                     71.78       0.00       0.00       2.70      58.44       9.50      67.95        1.25   830.71   0.947
  sub62                     71.78       0.00       0.00       1.24      64.75       4.51      69.25        1.90  1175.61   0.965
  sub63                     71.78       0.00       0.00       5.03      49.99      15.79      65.78        1.49   956.01   0.917
  sub64                     71.78       0.00       0.00       2.54      59.80       8.23      68.03        1.63   970.85   0.948
  sub65                     71.78       0.00       0.00       2.19      61.19       7.14      68.33        1.88  1086.26   0.952
  sub66                     71.78       0.00       0.00       6.27      49.88      14.55      64.43        3.00  1490.28   0.898
  sub67                     71.78       0.00       0.00       1.19      64.79       4.56      69.35        1.29   884.99   0.966
  sub68                     71.78       0.00       0.00       2.24      60.54       7.81      68.35        1.88  1205.07   0.952
  sub69                     71.78       0.00       0.00       2.03      60.90       8.74      69.63        2.58  1443.05   0.970
  sub70                     71.78       0.00       0.00       6.81      47.20      17.59      64.79        1.87   839.30   0.903
  sub71                     71.78       0.00       0.00       1.27      64.70       4.47      69.17        1.81  1046.31   0.964
  sub72                     71.78       0.00       0.00       1.14      65.34       3.89      69.23        0.95   513.23   0.965
  
  
  ******************
  Node Depth Summary
  ******************
  
  ---------------------------------------------------------------------------------
                                 Average  Maximum  Maximum  Time of Max    Reported
                                   Depth    Depth      HGL   Occurrence   Max Depth
  Node                 Type       Meters   Meters   Meters  days hr:min      Meters
  ---------------------------------------------------------------------------------
  WS02003060           JUNCTION     0.23     0.38     5.32     0  02:43        0.38
  WS02003066           JUNCTION     0.19     0.30     5.85     0  02:42        0.30
  WS02003067           JUNCTION     0.50     0.70     6.02     0  02:42        0.70
  WS02003069           JUNCTION     0.26     0.43     5.01     0  02:43        0.43
  WS02003072           JUNCTION     0.32     0.50     4.87     0  02:44        0.50
  WS02003073           JUNCTION     0.18     0.30     4.36     0  02:44        0.30
  WS02004401           JUNCTION     0.58     0.85     6.85     0  02:39        0.85
  WS02004402           JUNCTION     0.61     0.88     6.84     0  02:40        0.88
  WS02004403           JUNCTION     0.64     0.89     6.82     0  02:40        0.89
  WS02004404           JUNCTION     0.71     0.96     6.81     0  02:40        0.96
  WS02004405           JUNCTION     0.71     0.96     6.81     0  02:40        0.96
  WS02004406           JUNCTION     0.72     0.96     6.79     0  02:40        0.96
  WS02004407           JUNCTION     0.17     0.30     6.61     0  02:40        0.30
  WS02004409           JUNCTION     0.39     0.67     6.44     0  02:41        0.67
  WS02004410           JUNCTION     0.41     0.68     6.40     0  02:41        0.68
  WS02004411           JUNCTION     0.43     0.69     6.37     0  02:41        0.69
  WS02004412           JUNCTION     0.46     0.70     6.34     0  02:41        0.70
  WS02004413           JUNCTION     0.62     0.86     6.33     0  02:42        0.86
  WS02006109           JUNCTION     0.64     1.42     8.04     0  02:46        1.15
  WS02006110           JUNCTION     0.64     1.56     8.14     0  02:46        1.11
  WS02006111           JUNCTION     0.17     0.29     7.00     0  03:26        0.29
  WS02006112           JUNCTION     0.73     1.10     6.98     0  02:53        1.05
  WS02006113           JUNCTION     0.26     0.46     7.35     0  03:26        0.46
  WS02006115           JUNCTION     0.46     0.75     6.89     0  02:39        0.75
  WS02006116           JUNCTION     0.55     0.83     6.87     0  02:39        0.83
  WS02006228           JUNCTION     0.63     1.28     7.93     0  02:46        1.13
  WS02006229           JUNCTION     0.60     1.23     7.92     0  02:52        1.13
  WS02006230           JUNCTION     0.59     1.42     8.17     0  02:52        1.15
  WS02006231           JUNCTION     0.41     1.21     8.34     0  02:52        0.88
  WS02006232           JUNCTION     0.54     1.69     8.73     0  01:55        1.17
  WS02006234           JUNCTION     0.46     1.59     8.75     0  01:55        1.41
  WS02006235           JUNCTION     0.50     1.73     8.89     0  02:52        1.69
  WS02006238           JUNCTION     0.52     1.79     8.94     0  02:52        1.78
  WS02006239           JUNCTION     0.49     1.90     9.10     0  03:26        1.90
  WS02006240           JUNCTION     0.46     2.10     9.39     0  01:55        1.85
  WS02006242           JUNCTION     0.53     1.55     8.82     0  01:55        1.55
  WS02006243           JUNCTION     0.43     1.48     8.90     0  01:55        1.48
  WS02006245           JUNCTION     0.44     1.51     8.99     0  03:26        1.51
  WS02006247           JUNCTION     0.46     1.42     8.92     0  03:26        1.42
  WS02006248           JUNCTION     0.42     1.10     8.69     0  02:52        1.10
  WS02006249           JUNCTION     0.46     1.09     8.69     0  02:16        1.09
  WS02006251           JUNCTION     0.45     1.40     9.07     0  02:45        1.13
  WS02006252           JUNCTION     0.34     1.50     9.74     0  00:00        0.73
  WS02006256           JUNCTION     0.95     2.35     9.28     0  00:00        2.35
  WSF200               JUNCTION     0.17     0.29     5.52     0  02:42        0.29
  YS02001580           JUNCTION     0.08     1.05     9.59     0  02:08        0.77
  YS02001583           JUNCTION     0.11     1.14     9.64     0  02:08        0.82
  YS02001586           JUNCTION     0.19     1.13     9.30     0  02:08        1.13
  YS02001590           JUNCTION     0.30     1.39     9.26     0  02:45        1.37
  YS02001593           JUNCTION     0.22     1.33     9.19     0  02:45        1.29
  YS02001596           JUNCTION     0.31     1.68     9.10     0  02:45        1.65
  YS02001600           JUNCTION     0.38     1.87     9.00     0  02:45        1.87
  YS02001601           JUNCTION     0.58     2.06     8.90     0  02:07        2.06
  YS02001602           JUNCTION     0.49     1.87     8.77     0  02:13        1.87
  YS02001605           JUNCTION     0.46     1.78     8.68     0  02:45        1.78
  YS02001607           JUNCTION     0.45     1.68     8.53     0  02:45        1.68
  YS02001610           JUNCTION     0.49     1.68     8.48     0  02:13        1.68
  YS02001613           JUNCTION     0.45     1.70     8.54     0  02:45        1.70
  YS02001616           JUNCTION     0.38     1.61     8.52     0  02:20        1.61
  YS02001619           JUNCTION     0.35     1.61     8.54     0  02:20        1.61
  YS02001622           JUNCTION     0.34     1.58     8.49     0  02:23        1.58
  YS02001625           JUNCTION     0.61     1.78     8.38     0  02:13        1.78
  YS02001629           JUNCTION     0.47     1.85     8.40     0  02:16        1.85
  YS02001633           JUNCTION     0.55     2.08     8.53     0  02:45        2.08
  YS02001641           JUNCTION     0.53     1.95     8.39     0  02:18        1.94
  YS02001644           JUNCTION     0.53     1.92     8.35     0  02:18        1.92
  YS02001647           JUNCTION     0.30     1.77     8.38     0  02:24        1.77
  YS02001649           JUNCTION     0.35     1.99     8.38     0  02:24        1.99
  YS02001652           JUNCTION     0.23     1.84     8.44     0  02:22        1.83
  YS02001655           JUNCTION     0.17     1.65     8.50     0  02:22        1.62
  YS02001658           JUNCTION     0.13     1.42     8.56     0  02:22        1.37
  YS02001661           JUNCTION     0.16     1.23     8.64     0  02:22        1.16
  YS02001664           JUNCTION     0.06     0.63     8.55     0  02:24        0.61
  YS02001745           JUNCTION     0.07     0.87     8.39     0  02:24        0.86
  YS02001748           JUNCTION     0.12     1.31     8.39     0  02:18        1.29
  YS02001751           JUNCTION     0.15     1.48     8.36     0  02:24        1.48
  YS02001754           JUNCTION     0.20     1.73     8.34     0  02:24        1.72
  YS02001757           JUNCTION     0.37     2.06     8.32     0  02:24        2.06
  YS02001759           JUNCTION     0.31     2.06     8.43     0  02:24        2.06
  YS02001762           JUNCTION     0.29     2.15     8.55     0  02:15        2.15
  YS02001765           JUNCTION     0.27     2.10     8.55     0  02:15        2.10
  YS02001767           JUNCTION     0.27     2.03     8.52     0  02:15        2.03
  YS02001770           JUNCTION     0.29     1.95     8.44     0  02:14        1.95
  YS02001774           JUNCTION     0.35     2.05     8.47     0  02:15        2.05
  YS02001779           JUNCTION     0.18     1.68     8.37     0  02:15        1.68
  YS02001783           JUNCTION     0.25     1.25     7.39     0  02:23        1.24
  YS02001784           JUNCTION     0.26     1.14     7.21     0  02:15        1.14
  YS02001786           JUNCTION     0.22     0.88     6.91     0  02:23        0.88
  YS02001788           JUNCTION     0.16     0.62     6.60     0  02:23        0.62
  YS02001790           JUNCTION     0.19     0.73     6.37     0  02:22        0.72
  YS02001791           JUNCTION     0.12     0.44     5.91     0  02:22        0.43
  YS02001793           JUNCTION     0.06     0.29     5.12     0  02:16        0.27
  YS02001882           JUNCTION     0.31     1.68     8.39     0  02:24        1.68
  YS02001884           JUNCTION     0.40     1.77     8.38     0  02:24        1.77
  YS02001887           JUNCTION     0.48     1.86     8.39     0  02:24        1.86
  YS02001890           JUNCTION     0.51     1.81     8.32     0  02:14        1.81
  YS02001895           JUNCTION     0.28     1.57     8.31     0  02:15        1.56
  YS02001898           JUNCTION     0.29     1.56     8.30     0  02:15        1.56
  YS02001901           JUNCTION     0.41     1.68     8.29     0  02:17        1.67
  YS02001904           JUNCTION     0.38     1.64     8.27     0  02:14        1.64
  YS02001907           JUNCTION     0.71     1.96     8.25     0  02:14        1.96
  YS02001910           JUNCTION     0.51     1.95     8.46     0  02:14        1.92
  YS02001915           JUNCTION     0.31     1.90     8.62     0  02:14        1.85
  YS02001918           JUNCTION     0.16     1.76     8.82     0  02:14        1.52
  YS02001920           JUNCTION     0.24     1.88     8.88     0  02:16        1.59
  YS02001923           JUNCTION     0.12     1.68     8.94     0  02:16        1.35
  YS02001926           JUNCTION     0.16     1.55     8.99     0  02:16        1.18
  YS02001929           JUNCTION     0.09     1.33     9.03     0  02:16        0.95
  YS02006553           JUNCTION     0.71     1.99     8.27     0  02:23        1.99
  YS02006556           JUNCTION     0.69     1.99     8.30     0  02:23        1.99
  YS02006558           JUNCTION     0.73     2.04     8.30     0  02:23        2.04
  YS02006561           JUNCTION     0.15     0.92     7.58     0  02:15        0.90
  YS02163301           JUNCTION     0.49     1.94     8.45     0  02:16        1.94
  YS02163601           JUNCTION     0.59     2.03     8.43     0  02:18        2.03
  YS02164001           JUNCTION     0.52     1.96     8.41     0  02:18        1.94
  CC-1                 OUTFALL      0.00     0.00     0.00     0  00:00        0.00
  CC-2                 OUTFALL      0.00     0.00     0.00     0  00:00        0.00
  JK-1                 OUTFALL      0.00     0.00     0.00     0  00:00        0.00
  JK-2                 OUTFALL      0.00     0.00     0.00     0  00:00        0.00
  WSC                  OUTFALL      0.18     0.30     0.97     0  02:44        0.30
  CC-storage           STORAGE      0.90     1.77     7.27     0  02:47        1.77
  JK-storage           STORAGE      2.74     4.22     5.02     0  02:16        4.15
  
  
  *******************
  Node Inflow Summary
  *******************
  
  -------------------------------------------------------------------------------------------------
                                  Maximum  Maximum                  Lateral       Total        Flow
                                  Lateral    Total  Time of Max      Inflow      Inflow     Balance
                                   Inflow   Inflow   Occurrence      Volume      Volume       Error
  Node                 Type           LPS      LPS  days hr:min    10^6 ltr    10^6 ltr     Percent
  -------------------------------------------------------------------------------------------------
  WS02003060           JUNCTION     16.53   553.47     0  02:42       0.476        5.57       0.036
  WS02003066           JUNCTION      0.00   536.86     0  02:42           0        5.09       0.024
  WS02003067           JUNCTION      0.00   536.84     0  02:42           0         5.1       0.079
  WS02003069           JUNCTION      0.32   553.74     0  02:43     0.00922        5.58       0.062
  WS02003072           JUNCTION      0.00   553.58     0  02:43           0        5.57       0.113
  WS02003073           JUNCTION      1.82   555.27     0  02:44      0.0524        5.62       0.089
  WS02004401           JUNCTION      0.00   539.82     0  03:27           0        5.19       0.190
  WS02004402           JUNCTION      0.00   538.80     0  02:40           0        5.18       0.194
  WS02004403           JUNCTION      0.00   538.37     0  02:40           0        5.17       0.190
  WS02004404           JUNCTION      0.16   538.29     0  02:40     0.00467        5.17       0.160
  WS02004405           JUNCTION      0.04   538.19     0  02:40      0.0011        5.16       0.236
  WS02004406           JUNCTION      0.00   538.33     0  02:40           0        5.15       0.394
  WS02004407           JUNCTION      0.00   537.85     0  02:40           0        5.13       0.018
  WS02004409           JUNCTION      0.00   537.61     0  02:40           0        5.13       0.044
  WS02004410           JUNCTION      0.00   537.34     0  02:41           0        5.13       0.076
  WS02004411           JUNCTION      0.00   537.18     0  02:41           0        5.12       0.100
  WS02004412           JUNCTION      0.00   537.05     0  02:41           0        5.12       0.137
  WS02004413           JUNCTION      0.00   536.95     0  02:42           0        5.11       0.245
  WS02006109           JUNCTION      1.23   574.84     0  03:26      0.0354        5.24       0.184
  WS02006110           JUNCTION      0.00   578.78     0  03:26           0        5.23       0.116
  WS02006111           JUNCTION      0.00   571.43     0  03:26           0        5.22       0.013
  WS02006112           JUNCTION      0.00   546.31     0  03:26           0        5.22       0.332
  WS02006113           JUNCTION      0.00   590.07     0  03:26           0        5.23       0.031
  WS02006115           JUNCTION      0.00   562.43     0  03:26           0        5.21       0.119
  WS02006116           JUNCTION      0.00   547.30     0  03:27           0         5.2       0.105
  WS02006228           JUNCTION      0.00   567.84     0  03:26           0        5.21       0.074
  WS02006229           JUNCTION      0.00   562.51     0  03:26           0        5.21       0.095
  WS02006230           JUNCTION     10.28   590.84     0  02:45       0.296        5.22       0.064
  WS02006231           JUNCTION      0.00   573.20     0  02:45           0        4.92      -0.035
  WS02006232           JUNCTION      0.00   572.55     0  02:45           0        4.93       0.168
  WS02006234           JUNCTION      0.00   568.77     0  02:45           0        4.92      -0.177
  WS02006235           JUNCTION      0.00   561.96     0  02:45           0        4.97       0.167
  WS02006238           JUNCTION      0.00   422.88     0  02:50           0        4.07      -0.185
  WS02006239           JUNCTION      0.00   422.01     0  02:40           0        4.04      -0.197
  WS02006240           JUNCTION      0.00   419.67     0  02:40           0        4.02      -0.069
  WS02006242           JUNCTION      0.00   419.22     0  02:40           0           4       0.025
  WS02006243           JUNCTION      0.00   419.24     0  03:26           0        3.99      -0.008
  WS02006245           JUNCTION      0.00   418.92     0  02:50           0           4       0.305
  WS02006247           JUNCTION      0.00   418.88     0  02:50           0           4       0.036
  WS02006248           JUNCTION      0.00   419.70     0  02:50           0           4       0.030
  WS02006249           JUNCTION      0.00   459.02     0  00:00           0        4.21       0.282
  WS02006251           JUNCTION      0.08   404.18     0  03:15     0.00222        4.21      -0.016
  WS02006252           JUNCTION      0.00   400.00     0  00:00           0        4.21      -0.062
  WS02006256           JUNCTION      0.00   300.00     0  00:00           0        1.32      -0.670
  WSF200               JUNCTION      0.00   536.88     0  02:42           0        5.09       0.007
  YS02001580           JUNCTION      0.00    70.85     0  02:08           0     0.00407      -1.092
  YS02001583           JUNCTION      0.00   106.49     0  02:08           0      0.0158      -3.257
  YS02001586           JUNCTION    839.30   839.34     0  02:26        1.87        1.88       0.051
  YS02001590           JUNCTION      0.00   324.74     0  02:45           0        1.44      -0.025
  YS02001593           JUNCTION      0.00   322.27     0  02:45           0        1.44       0.004
  YS02001596           JUNCTION      0.00   318.07     0  02:18           0        1.44      -0.004
  YS02001600           JUNCTION      0.00   318.06     0  02:18           0        1.44       0.028
  YS02001601           JUNCTION   1443.05  1760.47     0  02:25        2.58        4.01       0.020
  YS02001602           JUNCTION      0.00   494.63     0  02:08           0        2.46       0.017
  YS02001605           JUNCTION      0.00   493.92     0  02:08           0        2.33       0.024
  YS02001607           JUNCTION      0.00   492.89     0  02:08           0        2.33       0.088
  YS02001610           JUNCTION      0.00   834.12     0  02:26           0        2.62       0.092
  YS02001613           JUNCTION      0.00   497.33     0  02:26           0        2.11       0.078
  YS02001616           JUNCTION      0.00   499.47     0  02:07           0        2.11       0.018
  YS02001619           JUNCTION   1490.28  1490.28     0  02:26           3        4.83       0.002
  YS02001622           JUNCTION      0.00  1000.04     0  02:25           0        4.54       0.002
  YS02001625           JUNCTION      0.00  1433.08     0  02:26           0        4.81       0.202
  YS02001629           JUNCTION      0.00   925.40     0  02:13           0        3.69       0.017
  YS02001633           JUNCTION   1086.46  1321.63     0  02:13        1.89        5.29       0.069
  YS02001641           JUNCTION      0.00  1321.59     0  02:13           0           5       0.059
  YS02001644           JUNCTION    970.88  1681.12     0  02:14        1.64        6.63       0.054
  YS02001647           JUNCTION      0.00  1680.74     0  02:14           0        6.05       0.005
  YS02001649           JUNCTION      0.00  1888.59     0  02:14           0        7.55       0.006
  YS02001652           JUNCTION      0.00   972.91     0  02:25           0         1.5      -0.083
  YS02001655           JUNCTION      0.15   972.59     0  02:25     0.00443         1.5      -0.019
  YS02001658           JUNCTION      0.00   972.64     0  02:25           0         1.5      -0.020
  YS02001661           JUNCTION      0.00   971.19     0  02:25           0         1.5       0.007
  YS02001664           JUNCTION    956.01   956.01     0  02:25        1.49        1.49      -0.005
  YS02001745           JUNCTION    596.95   596.95     0  02:25       0.903       0.903       0.150
  YS02001748           JUNCTION      0.04   600.66     0  02:25      0.0013       0.906      -0.225
  YS02001751           JUNCTION      0.01   601.39     0  02:25    0.000317       0.912       0.072
  YS02001754           JUNCTION      0.26   601.17     0  02:25     0.00749       0.921      -0.155
  YS02001757           JUNCTION      0.00  3084.89     0  02:20           0        11.4       0.029
  YS02001759           JUNCTION    830.75  1293.96     0  02:24        1.25         2.9      -0.010
  YS02001762           JUNCTION      0.00   712.98     0  02:20           0        1.65       0.004
  YS02001765           JUNCTION      0.00   713.59     0  02:20           0        1.65      -0.001
  YS02001767           JUNCTION      0.54   713.74     0  02:20      0.0154        1.65       0.015
  YS02001770           JUNCTION   1175.77  1175.77     0  02:25         1.9        1.95      -0.011
  YS02001774           JUNCTION      0.00   718.43     0  02:25           0       0.327       0.348
  YS02001779           JUNCTION      0.01   719.20     0  02:25    0.000144       0.282      -0.132
  YS02001783           JUNCTION      0.00  1168.68     0  02:24           0        4.42       0.005
  YS02001784           JUNCTION      1.06  1169.38     0  02:24      0.0305        4.45       0.013
  YS02001786           JUNCTION      0.06  1169.69     0  02:24     0.00162        4.45       0.015
  YS02001788           JUNCTION      0.07  1169.46     0  02:24     0.00204        4.45       0.007
  YS02001790           JUNCTION      0.15  1179.38     0  02:24     0.00446        4.45       0.025
  YS02001791           JUNCTION      0.00  1289.59     0  02:22           0        4.45      -0.028
  YS02001793           JUNCTION      0.00  1254.69     0  02:24           0        4.45       0.005
  YS02001882           JUNCTION      0.00    36.84     0  02:12           0      0.0129       4.817
  YS02001884           JUNCTION      0.00    36.88     0  02:09           0       0.049       5.336
  YS02001887           JUNCTION    885.44   885.92     0  02:25         1.3        1.34       0.332
  YS02001890           JUNCTION      0.00   885.34     0  02:25           0         1.3       0.402
  YS02001895           JUNCTION      0.00   517.26     0  02:24           0        1.18       0.143
  YS02001898           JUNCTION      0.00   517.46     0  02:25           0        1.17       0.019
  YS02001901           JUNCTION      0.00   517.39     0  02:25           0        1.18       0.276
  YS02001904           JUNCTION      0.00   517.51     0  02:25           0        1.18       0.236
  YS02001907           JUNCTION      0.00  2119.02     0  02:25           0        4.02       0.453
  YS02001910           JUNCTION      0.00  1569.13     0  02:25           0        2.85       0.253
  YS02001915           JUNCTION   1046.33  1568.92     0  02:25        1.81        2.87       0.052
  YS02001918           JUNCTION      0.00   526.07     0  02:25           0        1.07       0.016
  YS02001920           JUNCTION      2.87   525.93     0  02:25      0.0827        1.06       0.088
  YS02001923           JUNCTION      0.04   522.14     0  02:25     0.00109       0.967      -0.038
  YS02001926           JUNCTION      0.05   521.37     0  02:25      0.0015       0.957      -0.021
  YS02001929           JUNCTION    513.23   513.23     0  02:26       0.952       0.952      -0.023
  YS02006553           JUNCTION      0.00   801.86     0  02:40           0        2.56       0.476
  YS02006556           JUNCTION      0.00   802.05     0  02:40           0        2.57       0.314
  YS02006558           JUNCTION   1205.95  1205.95     0  02:25        1.91        4.45       0.081
  YS02006561           JUNCTION      0.00  1167.82     0  02:24           0        4.42      -0.002
  YS02163301           JUNCTION      0.00   925.25     0  02:13           0        3.69       0.044
  YS02163601           JUNCTION      0.11  1321.92     0  02:13     0.00317           5       0.102
  YS02164001           JUNCTION      0.00  1321.76     0  02:13           0           5       0.047
  CC-1                 OUTFALL       0.00   683.00     0  00:00           0        3.79       0.000
  CC-2                 OUTFALL       0.00   683.00     0  00:00           0        3.39       0.000
  JK-1                 OUTFALL       0.00  1000.00     0  00:00           0        1.67       0.000
  JK-2                 OUTFALL       0.00  1000.00     0  00:00           0        1.43       0.000
  WSC                  OUTFALL       0.00   555.11     0  02:44           0        5.61       0.000
  CC-storage           STORAGE       0.00  3083.01     0  02:20           0        13.6      -0.079
  JK-storage           STORAGE       0.00  1290.81     0  02:24           0         4.6       0.127
  
  
  **********************
  Node Surcharge Summary
  **********************
  
  Surcharging occurs when water rises above the top of the highest conduit.
  ---------------------------------------------------------------------
                                               Max. Height   Min. Depth
                                   Hours       Above Crown    Below Rim
  Node                 Type      Surcharged         Meters       Meters
  ---------------------------------------------------------------------
  WS02006109           JUNCTION        1.96          0.600        1.220
  WS02006110           JUNCTION        0.68          0.648        1.202
  WS02006112           JUNCTION        0.73          0.097        1.583
  WS02006228           JUNCTION        1.96          0.450        1.750
  WS02006229           JUNCTION        1.97          0.426        2.024
  WS02006230           JUNCTION        0.71          0.340        1.230
  WS02006231           JUNCTION        0.78          0.503        1.027
  WS02006232           JUNCTION        2.04          0.993        0.487
  WS02006234           JUNCTION        1.09          0.872        0.368
  WS02006235           JUNCTION        1.95          1.015        0.275
  WS02006238           JUNCTION        1.99          1.073        0.357
  WS02006239           JUNCTION        1.95          1.155        0.135
  WS02006240           JUNCTION        1.95          1.390        0.000
  WS02006242           JUNCTION        2.04          0.820        0.000
  WS02006243           JUNCTION        1.87          0.770        0.000
  WS02006245           JUNCTION        1.86          0.798        0.052
  WS02006247           JUNCTION        1.88          0.715        0.045
  WS02006248           JUNCTION        1.85          0.380        0.000
  WS02006249           JUNCTION        1.87          0.390        0.000
  WS02006251           JUNCTION        0.82          0.372        0.808
  WS02006252           JUNCTION        2.12          1.100        0.000
  WS02006256           JUNCTION        5.81          2.050        0.000
  YS02001580           JUNCTION        0.69          0.450        0.000
  YS02001583           JUNCTION        0.70          0.500        0.000
  YS02001586           JUNCTION        0.83          0.510        0.000
  YS02001590           JUNCTION        0.92          0.745        0.005
  YS02001593           JUNCTION        0.92          0.711        0.129
  YS02001596           JUNCTION        1.04          0.952        0.118
  YS02001600           JUNCTION        1.20          1.190        0.000
  YS02001601           JUNCTION        1.57          1.440        0.000
  YS02001602           JUNCTION        1.45          1.270        0.000
  YS02001605           JUNCTION        1.39          1.180        0.000
  YS02001607           JUNCTION        0.90          0.680        0.000
  YS02001610           JUNCTION        0.93          0.680        0.000
  YS02001613           JUNCTION        0.90          0.700        0.000
  YS02001616           JUNCTION        0.86          0.610        0.000
  YS02001619           JUNCTION        0.84          0.610        0.000
  YS02001622           JUNCTION        0.84          0.582        0.038
  YS02001625           JUNCTION        1.02          0.780        0.000
  YS02001629           JUNCTION        0.77          0.470        0.000
  YS02001633           JUNCTION        1.05          1.060        0.000
  YS02001641           JUNCTION        0.99          0.954        0.146
  YS02001644           JUNCTION        0.95          0.920        0.000
  YS02001647           JUNCTION        0.72          0.765        0.135
  YS02001649           JUNCTION        0.83          0.989        0.061
  YS02001652           JUNCTION        0.64          0.814        0.316
  YS02001655           JUNCTION        0.49          0.653        0.547
  YS02001658           JUNCTION        0.28          0.416        0.884
  YS02001661           JUNCTION        0.06          0.162        1.228
  YS02001748           JUNCTION        0.22          0.231        0.959
  YS02001751           JUNCTION        0.37          0.479        0.721
  YS02001754           JUNCTION        0.56          0.678        0.472
  YS02001757           JUNCTION        0.89          1.059        0.151
  YS02001759           JUNCTION        0.81          1.063        0.147
  YS02001762           JUNCTION        0.78          1.150        0.000
  YS02001765           JUNCTION        0.75          1.100        0.000
  YS02001767           JUNCTION        0.71          1.030        0.000
  YS02001770           JUNCTION        0.68          0.920        0.000
  YS02001774           JUNCTION        0.76          1.050        0.000
  YS02001779           JUNCTION        0.55          0.680        0.000
  YS02001783           JUNCTION        0.59          0.446        1.154
  YS02001784           JUNCTION        0.57          0.342        1.148
  YS02001786           JUNCTION        0.45          0.084        1.346
  YS02001882           JUNCTION        0.53          0.678        0.152
  YS02001884           JUNCTION        0.54          0.708        0.162
  YS02001887           JUNCTION        0.58          0.807        0.143
  YS02001890           JUNCTION        0.60          0.760        0.000
  YS02001895           JUNCTION        0.52          0.566        0.184
  YS02001898           JUNCTION        0.51          0.534        0.206
  YS02001901           JUNCTION        0.57          0.677        0.193
  YS02001904           JUNCTION        0.56          0.639        0.211
  YS02001907           JUNCTION        0.88          0.950        0.000
  YS02001910           JUNCTION        0.63          0.952        0.148
  YS02001915           JUNCTION        0.53          0.902        0.098
  YS02001918           JUNCTION        0.44          0.759        0.051
  YS02001920           JUNCTION        0.45          0.876        0.264
  YS02001923           JUNCTION        0.12          0.474        0.346
  YS02001926           JUNCTION        0.15          0.547        0.353
  YS02001929           JUNCTION        0.01          0.334        0.446
  YS02006553           JUNCTION        0.90          0.991        0.199
  YS02006556           JUNCTION        0.74          0.946        0.404
  YS02006558           JUNCTION        0.72          0.937        0.463
  YS02006561           JUNCTION        0.40          0.124        1.026
  YS02163301           JUNCTION        1.03          0.936        0.094
  YS02163601           JUNCTION        1.09          1.032        0.048
  YS02164001           JUNCTION        0.99          0.957        0.143
  
  
  *********************
  Node Flooding Summary
  *********************
  
  Flooding refers to all water that overflows a node, whether it ponds or not.
  --------------------------------------------------------------------------
                                                             Total   Maximum
                                 Maximum   Time of Max       Flood    Ponded
                        Hours       Rate    Occurrence      Volume     Depth
  Node                 Flooded       LPS   days hr:min    10^6 ltr    Meters
  --------------------------------------------------------------------------
  WS02006240              0.01     82.86      0  01:55       0.000     0.000
  WS02006242              0.01     47.48      0  01:55       0.000     0.000
  WS02006243              0.01     47.01      0  01:55       0.000     0.000
  WS02006248              0.01     20.30      0  03:26       0.000     0.000
  WS02006249              0.80    106.88      0  03:26       0.196     0.000
  WS02006252              0.01    245.63      0  00:00       0.000     0.000
  WS02006256              1.22    293.19      0  00:00       0.400     0.000
  YS02001580              0.01     37.15      0  02:08       0.000     0.000
  YS02001583              0.01     35.20      0  02:08       0.000     0.000
  YS02001586              0.53    521.80      0  02:26       0.436     0.000
  YS02001600              0.01      1.41      0  02:45       0.000     0.000
  YS02001601              0.76   1362.67      0  02:25       1.554     0.000
  YS02001602              0.61     62.16      0  02:40       0.126     0.000
  YS02001605              0.01      5.59      0  02:45       0.000     0.000
  YS02001607              0.01      0.96      0  02:45       0.000     0.000
  YS02001610              0.55    833.99      0  02:26       0.793     0.000
  YS02001613              0.01      0.58      0  02:45       0.000     0.000
  YS02001616              0.01      0.76      0  02:20       0.000     0.000
  YS02001619              0.01      1.24      0  02:24       0.000     0.000
  YS02001625              0.53   1432.99      0  02:26       1.399     0.000
  YS02001629              0.14     79.23      0  02:25       0.015     0.000
  YS02001633              0.01      1.41      0  02:45       0.000     0.000
  YS02001644              0.24   1355.03      0  02:25       0.571     0.000
  YS02001762              0.01     32.11      0  02:15       0.000     0.000
  YS02001765              0.01     27.68      0  02:15       0.000     0.000
  YS02001767              0.01      0.71      0  02:15       0.000     0.000
  YS02001770              0.01     50.46      0  02:14       0.000     0.000
  YS02001774              0.01     10.73      0  02:15       0.000     0.000
  YS02001779              0.21    719.00      0  02:25       0.263     0.000
  YS02001890              0.20    368.80      0  02:25       0.114     0.000
  YS02001907              0.38   2118.80      0  02:25       1.454     0.000
  
  
  **********************
  Storage Volume Summary
  **********************
  
  ------------------------------------------------------------------------------------------------
                         Average    Avg   Evap  Exfil     Maximum    Max    Time of Max    Maximum
                          Volume   Pcnt   Pcnt   Pcnt      Volume   Pcnt     Occurrence    Outflow
  Storage Unit           1000 m³   Full   Loss   Loss     1000 m³   Full    days hr:min        LPS
  ------------------------------------------------------------------------------------------------
  CC-storage               2.518   39.3    0.0    0.0       4.935   77.0       0  02:47    1783.53
  JK-storage               0.137   47.2    0.0    0.0       0.212   72.7       0  02:16    2300.00
  
  
  ***********************
  Outfall Loading Summary
  ***********************
  
  -----------------------------------------------------------
                         Flow       Avg       Max       Total
                         Freq      Flow      Flow      Volume
  Outfall Node           Pcnt       LPS       LPS    10^6 ltr
  -----------------------------------------------------------
  CC-1                  19.09    683.00    683.00       3.791
  CC-2                  21.08    683.00    683.00       3.390
  JK-1                   7.68   1000.00   1000.00       1.671
  JK-2                   5.09   1000.00   1000.00       1.430
  WSC                   99.96    245.48    555.11       5.614
  -----------------------------------------------------------
  System                30.58   3611.48   3920.68      15.896
  
  
  ********************
  Link Flow Summary
  ********************
  
  -----------------------------------------------------------------------------
                                 Maximum  Time of Max   Maximum    Max/    Max/
                                  |Flow|   Occurrence   |Veloc|    Full    Full
  Link                 Type          LPS  days hr:min     m/sec    Flow   Depth
  -----------------------------------------------------------------------------
  1                    CONDUIT    555.11     0  02:44      2.83    0.19    0.30
  WS02003060WS02003069 CONDUIT    553.42     0  02:43      1.64    0.22    0.34
  WS02003066WSF200     CONDUIT    536.88     0  02:42      2.85    0.09    0.22
  WS02003067WS02003066 CONDUIT    536.86     0  02:42      1.21    0.17    0.42
  WS02003069WS02003072 CONDUIT    553.58     0  02:43      1.37    0.27    0.39
  WS02003072WS02003073 CONDUIT    553.45     0  02:44      1.44    1.20    0.37
  WS02004401WS02004402 CONDUIT    538.80     0  02:40      0.98    0.65    0.86
  WS02004402WS02004403 CONDUIT    538.37     0  02:40      0.97    0.77    0.88
  WS02004403WS02004404 CONDUIT    538.13     0  02:40      0.92    0.39    0.93
  WS02004404WS02004405 CONDUIT    538.15     0  02:40      1.08    5.27    0.96
  WS02004405WS02004406 CONDUIT    538.33     0  02:40      0.99    1.06    0.96
  WS02004406WS02004407 CONDUIT    537.85     0  02:40      1.04    0.24    0.63
  WS02004407WS02004409 CONDUIT    537.61     0  02:40      1.47    0.19    0.48
  WS02004409WS02004410 CONDUIT    537.34     0  02:41      0.97    0.69    0.67
  WS02004410WS02004411 CONDUIT    537.18     0  02:41      0.94    0.73    0.69
  WS02004411WS02004412 CONDUIT    537.05     0  02:41      0.92    0.76    0.69
  WS02004412WS02004413 CONDUIT    536.95     0  02:42      0.82    0.36    0.78
  WS02004413WS02003067 CONDUIT    536.84     0  02:42      1.11    0.23    0.59
  WS02006109WS02006110 CONDUIT    578.78     0  03:26      1.15    1.11    1.00
  WS02006110WS02006113 CONDUIT    590.07     0  03:26      1.41    0.54    0.79
  WS02006111WS02006112 CONDUIT    546.31     0  03:26      1.81    0.26    0.67
  WS02006112WS02006115 CONDUIT    562.43     0  03:26      0.80    0.33    0.87
  WS02006113WS02006111 CONDUIT    571.43     0  03:26      2.49    0.68    0.47
  WS02006115WS02006116 CONDUIT    547.30     0  03:27      0.97    0.70    0.76
  WS02006116WS02004401 CONDUIT    539.82     0  03:27      0.98    0.74    0.84
  WS02006228WS02006109 CONDUIT    573.61     0  03:26      1.14    2.51    1.00
  WS02006229WS02006228 CONDUIT    567.84     0  03:26      1.14    1.88    1.00
  WS02006230WS02006229 CONDUIT    562.51     0  03:26      1.46   12.52    1.00
  WS02006231WS02006230 CONDUIT    580.56     0  02:45      1.59    8.81    1.00
  WS02006232WS02006231 CONDUIT    573.20     0  02:45      1.51    1.20    1.00
  WS02006234WS02006232 CONDUIT    572.55     0  02:45      1.49    1.16    1.00
  WS02006235WS02006234 CONDUIT    568.77     0  02:45      1.48    6.00    1.00
  WS02006238WS02006235 CONDUIT    422.79     0  02:50      1.45    0.94    1.00
  WS02006239WS02006238 CONDUIT    422.88     0  02:50      1.10    1.35    1.00
  WS02006240WS02006239 CONDUIT    422.01     0  02:40      1.24    1.33    1.00
  WS02006242WS02006240 CONDUIT    419.67     0  02:40      1.13    1.67    1.00
  WS02006243WS02006242 CONDUIT    419.22     0  02:40      1.40    0.90    1.00
  WS02006245WS02006243 CONDUIT    419.24     0  03:26      1.45    1.24    1.00
  WS02006247WS02006245 CONDUIT    418.92     0  02:50      1.43    3.32    1.00
  WS02006248WS02006247 CONDUIT    418.88     0  02:50      1.44    0.91    1.00
  WS02006249WS02006248 CONDUIT    419.70     0  02:50      1.36    2.30    1.00
  WS02006251WS02006249 CONDUIT    459.02     0  00:00      1.99    1.32    1.00
  WS02006252WS02006251 CONDUIT    404.11     0  03:15     24.61    1.48    1.00
  WS02006256WS02006235 CONDUIT    288.91     0  00:00      4.23    3.06    1.00
  WSF200WS02003060     CONDUIT    536.94     0  02:42      2.06    0.12    0.28
  YS02001580YS02001583 CONDUIT     70.85     0  02:08      0.49    0.27    1.00
  YS02001583YS02001586 CONDUIT    106.49     0  02:08      0.45    0.16    1.00
  YS02001586YS02001590 CONDUIT    324.74     0  02:45      1.24    0.57    1.00
  YS02001590YS02001593 CONDUIT    322.27     0  02:45      1.14    2.02    1.00
  YS02001593YS02001596 CONDUIT    318.07     0  02:18      1.74    0.50    1.00
  YS02001596YS02001600 CONDUIT    318.06     0  02:18      1.28    0.62    1.00
  YS02001600YS02001601 CONDUIT    317.95     0  02:18      1.12    0.55    1.00
  YS02001601YS02001602 CONDUIT    494.63     0  02:08      1.75    1.79    1.00
  YS02001602YS02001605 CONDUIT    493.92     0  02:08      1.75   10.45    1.00
  YS02001605YS02001607 CONDUIT    492.89     0  02:08      1.74    2.70    1.00
  YS02001607YS02001610 CONDUIT    492.96     0  02:08      0.63    0.47    1.00
  YS02001610YS02001613 CONDUIT    498.08     0  02:26      0.63    0.57    1.00
  YS02001613YS02001616 CONDUIT    499.47     0  02:07      0.64    0.43    1.00
  YS02001616YS02001619 CONDUIT    506.90     0  02:07      0.66    0.88    1.00
  YS02001619YS02001622 CONDUIT   1000.04     0  02:25      1.27    1.47    1.00
  YS02001622YS02001625 CONDUIT    999.92     0  02:25      1.27    0.53    1.00
  YS02001625YS02001629 CONDUIT    925.40     0  02:13      1.18    0.44    1.00
  YS02001629YS02163301 CONDUIT    925.25     0  02:13      1.18    1.14    1.00
  YS02001633YS02163601 CONDUIT   1321.81     0  02:13      1.68    1.39    1.00
  YS02001641YS02001644 CONDUIT   1322.42     0  02:13      1.68    4.27    1.00
  YS02001644YS02001647 CONDUIT   1680.74     0  02:14      2.17    0.99    1.00
  YS02001647YS02001649 CONDUIT   1699.71     0  02:13      2.29    0.90    1.00
  YS02001649YS02001757 CONDUIT   1889.10     0  02:14      2.45    1.15    1.00
  YS02001652YS02001649 CONDUIT    972.85     0  02:25      1.24    0.48    1.00
  YS02001655YS02001652 CONDUIT    972.91     0  02:25      1.25    0.47    1.00
  YS02001658YS02001655 CONDUIT    972.43     0  02:25      1.81    0.41    1.00
  YS02001661YS02001658 CONDUIT    972.64     0  02:25      2.20    0.38    1.00
  YS02001664YS02001661 CONDUIT    971.19     0  02:25      2.12    0.30    0.81
  YS02001745YS02001748 CONDUIT    600.62     0  02:25      2.03    0.23    0.94
  YS02001748YS02001751 CONDUIT    601.38     0  02:25      1.59    0.30    1.00
  YS02001751YS02001754 CONDUIT    600.91     0  02:25      1.36    0.29    1.00
  YS02001754YS02001757 CONDUIT    601.17     0  02:25      0.77    0.24    1.00
  YS02001757CaochengTiaoxuchi CONDUIT   3083.01     0  02:20      3.93    1.33    1.00
  YS02001759YS02001757 CONDUIT   1295.23     0  02:24      1.65    0.92    1.00
  YS02001762YS02001759 CONDUIT    712.97     0  02:20      0.91    0.82    1.00
  YS02001765YS02001762 CONDUIT    712.98     0  02:20      0.91    0.67    1.00
  YS02001767YS02001765 CONDUIT    713.59     0  02:20      0.91    0.90    1.00
  YS02001770YS02001767 CONDUIT    713.21     0  02:20      0.91    2.83    1.00
  YS02001774YS02001770 CONDUIT    718.43     0  02:25      0.91    0.46    1.00
  YS02001779YS02001774 CONDUIT    719.19     0  02:25      0.92    0.36    1.00
  YS02001783YS02001784 CONDUIT   1168.32     0  02:24      2.32    1.61    1.00
  YS02001784YS02001785 CONDUIT   1169.63     0  02:24      2.33    2.72    1.00
  YS02001786YS02001788 CONDUIT   1169.39     0  02:24      2.49    2.25    0.89
  YS02001788YS02001790 CONDUIT   1179.22     0  02:24      2.72    0.87    0.84
  YS02001790YS02001791 CONDUIT   1289.59     0  02:22      3.43    1.40    0.71
  YS02001791YS02001793 CONDUIT   1254.69     0  02:24      6.76    0.54    0.43
  YS02001793JiankangQianchi CONDUIT   1290.81     0  02:24      2.58    0.10    0.64
  YS02001882YS02001884 CONDUIT     36.84     0  02:12      0.14    0.04    1.00
  YS02001884YS02001887 CONDUIT     36.88     0  02:09      0.10    0.05    1.00
  YS02001887YS02001890 CONDUIT    885.34     0  02:25      1.13    1.52    1.00
  YS02001890YS02001895 CONDUIT    517.26     0  02:24      0.66    0.24    1.00
  YS02001895YS02001898 CONDUIT    517.46     0  02:25      0.66    0.90    1.00
  YS02001898YS02001901 CONDUIT    517.39     0  02:25      0.66    0.33    1.00
  YS02001901YS02001904 CONDUIT    517.51     0  02:25      0.66    0.80    1.00
  YS02001904YS02001907 CONDUIT    517.95     0  02:24      0.66    0.18    1.00
  YS02001907YS02006553 CONDUIT    801.86     0  02:40      0.89    0.94    1.00
  YS02001910YS02001907 CONDUIT   1569.13     0  02:25      2.00    0.88    1.00
  YS02001915YS02001910 CONDUIT   1569.13     0  02:25      2.00    0.78    1.00
  YS02001918YS02001915 CONDUIT    526.50     0  02:25      0.67    0.29    1.00
  YS02001920YS02001918 CONDUIT    526.07     0  02:25      0.67    0.51    1.00
  YS02001923YS02001920 CONDUIT    523.06     0  02:25      0.69    0.23    1.00
  YS02001926YS02001923 CONDUIT    522.11     0  02:25      0.94    0.75    1.00
  YS02001929YS02001926 CONDUIT    521.32     0  02:25      1.07    0.25    1.00
  YS02006553YS02006556 CONDUIT    802.05     0  02:40      1.02    0.69    1.00
  YS02006556YS02006558 CONDUIT    803.46     0  02:40      1.02    0.63    1.00
  YS02006558YS02006561 CONDUIT   1167.82     0  02:24      4.13    2.58    1.00
  YS02006561YS02001783 CONDUIT   1168.68     0  02:24      2.32    0.61    1.00
  YS02163301YS02001633 CONDUIT    925.31     0  02:13      1.18    0.87    1.00
  YS02163601YS02164001 CONDUIT   1321.76     0  02:13      1.68    1.17    1.00
  YS02164001YS02001641 CONDUIT   1321.59     0  02:13      1.68    1.80    1.00
  CC-R1                PUMP       683.00     0  00:00              1.00
  CC-R2                PUMP       683.00     0  00:00              1.00
  CC-S1                PUMP       200.00     0  00:00              1.00
  CC-S2                PUMP       200.00     0  00:00              1.00
  JK-R1                PUMP      1000.00     0  00:00              1.00
  JK-R2                PUMP      1000.00     0  00:00              1.00
  JK-S                 PUMP       300.00     0  00:00              1.00
  
  
  ***************************
  Flow Classification Summary
  ***************************
  
  -------------------------------------------------------------------------------------
                      Adjusted    ---------- Fraction of Time in Flow Class ---------- 
                       /Actual         Up    Down  Sub   Sup   Up    Down  Norm  Inlet 
  Conduit               Length    Dry  Dry   Dry   Crit  Crit  Crit  Crit  Ltd   Ctrl  
  -------------------------------------------------------------------------------------
  1                       1.00   0.00  0.00  0.00  0.00  1.00  0.00  0.00  0.39  0.00
  WS02003060WS02003069    1.00   0.00  0.00  0.00  0.98  0.02  0.00  0.00  0.68  0.00
  WS02003066WSF200        1.00   0.12  0.00  0.00  0.00  0.87  0.00  0.00  0.76  0.00
  WS02003067WS02003066    1.00   0.10  0.02  0.00  0.88  0.00  0.00  0.00  0.00  0.00
  WS02003069WS02003072    1.00   0.00  0.00  0.00  0.99  0.01  0.00  0.00  0.72  0.00
  WS02003072WS02003073    1.00   0.00  0.00  0.00  0.00  0.00  0.00  1.00  0.00  0.00
  WS02004401WS02004402    1.00   0.02  0.00  0.00  0.98  0.00  0.00  0.00  0.00  0.00
  WS02004402WS02004403    1.00   0.02  0.00  0.00  0.97  0.00  0.00  0.00  0.00  0.00
  WS02004403WS02004404    1.00   0.00  0.03  0.00  0.97  0.00  0.00  0.00  0.00  0.00
  WS02004404WS02004405    1.00   0.00  0.00  0.00  1.00  0.00  0.00  0.00  0.01  0.00
  WS02004405WS02004406    1.00   0.00  0.00  0.00  1.00  0.00  0.00  0.00  0.00  0.00
  WS02004406WS02004407    1.00   0.00  0.05  0.00  0.95  0.00  0.00  0.00  0.00  0.00
  WS02004407WS02004409    1.00   0.05  0.00  0.00  0.94  0.01  0.00  0.00  0.95  0.00
  WS02004409WS02004410    1.00   0.05  0.00  0.00  0.95  0.00  0.00  0.00  0.03  0.00
  WS02004410WS02004411    1.00   0.05  0.00  0.00  0.95  0.00  0.00  0.00  0.01  0.00
  WS02004411WS02004412    1.00   0.05  0.00  0.00  0.95  0.00  0.00  0.00  0.00  0.00
  WS02004412WS02004413    1.00   0.05  0.00  0.00  0.94  0.00  0.00  0.00  0.01  0.00
  WS02004413WS02003067    1.00   0.06  0.04  0.00  0.00  0.00  0.90  0.00  0.00  0.00
  WS02006109WS02006110    1.00   0.00  0.01  0.00  0.98  0.00  0.01  0.00  0.00  0.00
  WS02006110WS02006113    1.00   0.01  0.01  0.00  0.98  0.00  0.00  0.00  0.00  0.00
  WS02006111WS02006112    1.00   0.02  0.00  0.00  0.98  0.00  0.00  0.00  0.98  0.00
  WS02006112WS02006115    1.00   0.02  0.00  0.00  0.97  0.00  0.00  0.00  0.00  0.00
  WS02006113WS02006111    1.00   0.02  0.00  0.00  0.00  0.98  0.00  0.00  0.14  0.00
  WS02006115WS02006116    1.00   0.02  0.00  0.00  0.97  0.00  0.00  0.01  0.00  0.00
  WS02006116WS02004401    1.00   0.02  0.00  0.00  0.98  0.00  0.00  0.00  0.00  0.00
  WS02006228WS02006109    1.00   0.00  0.00  0.00  1.00  0.00  0.00  0.00  0.00  0.00
  WS02006229WS02006228    1.00   0.00  0.00  0.00  0.99  0.00  0.00  0.01  0.00  0.00
  WS02006230WS02006229    1.00   0.00  0.00  0.00  0.99  0.00  0.00  0.01  0.00  0.00
  WS02006231WS02006230    1.00   0.00  0.00  0.00  0.28  0.00  0.72  0.00  0.00  0.00
  WS02006232WS02006231    1.00   0.00  0.00  0.00  0.99  0.00  0.01  0.00  0.00  0.00
  WS02006234WS02006232    1.00   0.00  0.00  0.00  1.00  0.00  0.00  0.00  0.15  0.00
  WS02006235WS02006234    1.00   0.00  0.00  0.00  0.79  0.00  0.21  0.00  0.00  0.00
  WS02006238WS02006235    1.00   0.00  0.00  0.00  1.00  0.00  0.00  0.00  0.00  0.00
  WS02006239WS02006238    1.00   0.00  0.00  0.00  1.00  0.00  0.00  0.00  0.26  0.00
  WS02006240WS02006239    1.00   0.00  0.00  0.00  0.66  0.00  0.00  0.34  0.04  0.00
  WS02006242WS02006240    1.00   0.00  0.00  0.00  0.98  0.00  0.02  0.00  0.00  0.00
  WS02006243WS02006242    1.00   0.00  0.00  0.00  0.98  0.00  0.00  0.01  0.47  0.00
  WS02006245WS02006243    1.00   0.00  0.00  0.00  0.73  0.00  0.00  0.27  0.01  0.00
  WS02006247WS02006245    1.00   0.00  0.00  0.00  0.98  0.00  0.00  0.02  0.00  0.00
  WS02006248WS02006247    1.00   0.00  0.00  0.00  0.99  0.00  0.00  0.01  0.25  0.00
  WS02006249WS02006248    1.00   0.00  0.00  0.00  0.52  0.00  0.48  0.00  0.00  0.00
  WS02006251WS02006249    1.00   0.00  0.00  0.00  1.00  0.00  0.00  0.00  0.49  0.00
  WS02006252WS02006251    1.00   0.00  0.53  0.00  0.10  0.00  0.36  0.00  0.00  0.00
  WS02006256WS02006235    1.00   0.00  0.00  0.00  1.00  0.00  0.00  0.00  0.00  0.00
  WSF200WS02003060        1.00   0.00  0.12  0.00  0.25  0.63  0.00  0.00  0.45  0.00
  YS02001580YS02001583    1.00   0.26  0.53  0.00  0.21  0.00  0.00  0.00  0.62  0.00
  YS02001583YS02001586    1.00   0.40  0.34  0.00  0.26  0.00  0.00  0.00  0.63  0.00
  YS02001586YS02001590    1.00   0.13  0.00  0.00  0.46  0.04  0.00  0.38  0.38  0.00
  YS02001590YS02001593    1.00   0.13  0.01  0.00  0.13  0.00  0.74  0.00  0.00  0.00
  YS02001593YS02001596    1.00   0.13  0.00  0.00  0.15  0.01  0.00  0.71  0.02  0.00
  YS02001596YS02001600    1.00   0.13  0.00  0.00  0.22  0.01  0.00  0.63  0.05  0.00
  YS02001600YS02001601    1.00   0.13  0.01  0.00  0.86  0.00  0.00  0.00  0.58  0.00
  YS02001601YS02001602    1.00   0.13  0.01  0.00  0.87  0.00  0.00  0.00  0.00  0.00
  YS02001602YS02001605    1.00   0.13  0.00  0.00  0.87  0.00  0.00  0.00  0.00  0.00
  YS02001605YS02001607    1.00   0.14  0.00  0.00  0.86  0.00  0.00  0.00  0.00  0.00
  YS02001607YS02001610    1.00   0.13  0.01  0.00  0.86  0.00  0.00  0.00  0.01  0.00
  YS02001610YS02001613    1.00   0.13  0.00  0.00  0.87  0.00  0.00  0.00  0.00  0.00
  YS02001613YS02001616    1.00   0.13  0.00  0.00  0.87  0.00  0.00  0.00  0.00  0.00
  YS02001616YS02001619    1.00   0.13  0.00  0.00  0.87  0.00  0.00  0.00  0.00  0.00
  YS02001619YS02001622    1.00   0.13  0.00  0.00  0.87  0.00  0.00  0.00  0.27  0.00
  YS02001622YS02001625    1.00   0.13  0.00  0.00  0.87  0.00  0.00  0.00  0.04  0.00
  YS02001625YS02001629    1.00   0.13  0.04  0.00  0.18  0.00  0.65  0.00  0.00  0.00
  YS02001629YS02163301    1.00   0.15  0.01  0.00  0.84  0.00  0.00  0.00  0.00  0.00
  YS02001633YS02163601    1.00   0.00  0.01  0.00  0.99  0.00  0.00  0.00  0.14  0.00
  YS02001641YS02001644    1.00   0.00  0.01  0.00  0.99  0.00  0.00  0.00  0.00  0.00
  YS02001644YS02001647    1.00   0.00  0.17  0.00  0.83  0.00  0.00  0.00  0.00  0.00
  YS02001647YS02001649    1.00   0.00  0.17  0.00  0.55  0.29  0.00  0.00  0.55  0.00
  YS02001649YS02001757    1.00   0.00  0.00  0.00  0.84  0.16  0.00  0.00  0.40  0.00
  YS02001652YS02001649    1.00   0.00  0.00  0.00  0.97  0.03  0.00  0.00  0.72  0.00
  YS02001655YS02001652    1.00   0.00  0.00  0.00  0.21  0.01  0.00  0.77  0.06  0.00
  YS02001658YS02001655    1.00   0.00  0.14  0.00  0.67  0.19  0.00  0.00  0.68  0.00
  YS02001661YS02001658    1.00   0.14  0.00  0.00  0.51  0.36  0.00  0.00  0.68  0.00
  YS02001664YS02001661    1.00   0.13  0.00  0.00  0.77  0.11  0.00  0.00  0.85  0.00
  YS02001745YS02001748    1.00   0.00  0.00  0.00  0.11  0.00  0.00  0.89  0.04  0.00
  YS02001748YS02001751    1.00   0.00  0.00  0.00  0.83  0.17  0.00  0.00  0.73  0.00
  YS02001751YS02001754    1.00   0.00  0.00  0.00  0.18  0.01  0.00  0.81  0.04  0.00
  YS02001754YS02001757    1.00   0.00  0.00  0.00  1.00  0.00  0.00  0.00  0.79  0.00
  YS02001757CaochengTiaoxuchi    1.00   0.00  0.00  0.00  0.94  0.06  0.00  0.00  0.58  0.00
  YS02001759YS02001757    1.00   0.00  0.00  0.00  0.99  0.01  0.00  0.00  0.49  0.00
  YS02001762YS02001759    1.00   0.00  0.00  0.00  1.00  0.00  0.00  0.00  0.05  0.00
  YS02001765YS02001762    1.00   0.00  0.00  0.00  1.00  0.00  0.00  0.00  0.63  0.00
  YS02001767YS02001765    1.00   0.00  0.00  0.00  1.00  0.00  0.00  0.00  0.01  0.00
  YS02001770YS02001767    1.00   0.00  0.00  0.00  1.00  0.00  0.00  0.00  0.00  0.00
  YS02001774YS02001770    1.00   0.00  0.13  0.00  0.71  0.00  0.16  0.00  0.03  0.00
  YS02001779YS02001774    1.00   0.00  0.00  0.00  1.00  0.00  0.00  0.00  0.73  0.00
  YS02001783YS02001784    1.00   0.00  0.17  0.00  0.83  0.00  0.00  0.00  0.54  0.00
  YS02001784YS02001785    1.00   0.00  0.00  0.00  1.00  0.00  0.00  0.00  0.16  0.00
  YS02001786YS02001788    1.00   0.00  0.00  0.00  0.78  0.22  0.00  0.00  0.00  0.00
  YS02001788YS02001790    1.00   0.00  0.00  0.00  0.21  0.79  0.00  0.00  0.79  0.00
  YS02001790YS02001791    1.00   0.00  0.00  0.00  0.01  0.99  0.00  0.00  0.17  0.00
  YS02001791YS02001793    1.00   0.00  0.00  0.00  0.00  1.00  0.00  0.00  0.01  0.00
  YS02001793JiankangQianchi    1.00   0.00  0.00  0.00  0.96  0.04  0.00  0.00  0.97  0.00
  YS02001882YS02001884    1.00   0.15  0.01  0.00  0.84  0.00  0.00  0.00  0.00  0.00
  YS02001884YS02001887    1.00   0.06  0.05  0.00  0.89  0.00  0.00  0.00  0.00  0.00
  YS02001887YS02001890    1.00   0.00  0.00  0.00  0.97  0.00  0.03  0.00  0.00  0.00
  YS02001890YS02001895    1.00   0.00  0.16  0.00  0.84  0.00  0.00  0.00  0.00  0.00
  YS02001895YS02001898    1.00   0.16  0.00  0.00  0.82  0.00  0.02  0.00  0.00  0.00
  YS02001898YS02001901    1.00   0.16  0.00  0.00  0.84  0.00  0.00  0.00  0.01  0.00
  YS02001901YS02001904    1.00   0.16  0.00  0.00  0.84  0.00  0.00  0.00  0.00  0.00
  YS02001904YS02001907    1.00   0.00  0.16  0.00  0.84  0.00  0.00  0.00  0.00  0.00
  YS02001907YS02006553    1.00   0.00  0.02  0.00  0.98  0.00  0.00  0.00  0.00  0.00
  YS02001910YS02001907    1.00   0.00  0.00  0.00  0.97  0.00  0.00  0.03  0.12  0.00
  YS02001915YS02001910    1.00   0.00  0.00  0.00  0.97  0.03  0.00  0.00  0.15  0.00
  YS02001918YS02001915    1.00   0.00  0.01  0.00  0.98  0.02  0.00  0.00  0.73  0.00
  YS02001920YS02001918    1.00   0.00  0.01  0.00  0.99  0.00  0.00  0.00  0.00  0.00
  YS02001923YS02001920    1.00   0.00  0.00  0.00  1.00  0.00  0.00  0.00  0.91  0.00
  YS02001926YS02001923    1.00   0.00  0.07  0.00  0.07  0.00  0.86  0.00  0.00  0.00
  YS02001929YS02001926    1.00   0.00  0.13  0.00  0.87  0.00  0.00  0.00  0.81  0.00
  YS02006553YS02006556    1.00   0.01  0.00  0.00  0.99  0.00  0.00  0.00  0.03  0.00
  YS02006556YS02006558    1.00   0.00  0.00  0.00  1.00  0.00  0.00  0.00  0.00  0.00
  YS02006558YS02006561    1.00   0.17  0.00  0.00  0.06  0.77  0.00  0.00  0.18  0.00
  YS02006561YS02001783    1.00   0.17  0.00  0.00  0.10  0.73  0.00  0.00  0.67  0.00
  YS02163301YS02001633    1.00   0.00  0.15  0.00  0.85  0.00  0.00  0.00  0.00  0.00
  YS02163601YS02164001    1.00   0.00  0.08  0.00  0.92  0.00  0.00  0.00  0.00  0.00
  YS02164001YS02001641    1.00   0.01  0.07  0.00  0.92  0.00  0.00  0.00  0.05  0.00
  
  
  *************************
  Conduit Surcharge Summary
  *************************
  
  ----------------------------------------------------------------------------
                                                           Hours        Hours 
                         --------- Hours Full --------   Above Full   Capacity
  Conduit                Both Ends  Upstream  Dnstream   Normal Flow   Limited
  ----------------------------------------------------------------------------
  WS02003072WS02003073        0.01      0.01      0.01      1.06         0.01
  WS02004404WS02004405        0.01      0.01      0.01      3.68         0.01
  WS02004405WS02004406        0.01      0.01      0.01      0.67         0.01
  WS02006109WS02006110        0.68      0.68      2.05      0.77         0.01
  WS02006110WS02006113        0.01      0.01      2.00      0.01         0.01
  WS02006111WS02006112        0.01      0.01      2.34      0.01         0.01
  WS02006112WS02006115        0.01      0.01      0.73      0.01         0.01
  WS02006228WS02006109        1.96      2.05      1.96      2.52         1.96
  WS02006229WS02006228        1.96      1.97      1.96      2.31         1.95
  WS02006230WS02006229        2.14      2.27      2.14      4.53         2.14
  WS02006231WS02006230        0.71      0.71      0.81      4.06         0.01
  WS02006232WS02006231        0.77      0.77      2.04      0.82         0.01
  WS02006234WS02006232        1.91      1.91      2.04      0.81         0.80
  WS02006235WS02006234        1.08      1.09      1.95      3.85         0.01
  WS02006238WS02006235        1.97      1.97      2.04      0.01         0.01
  WS02006239WS02006238        1.98      2.01      1.99      2.02         1.72
  WS02006240WS02006239        1.94      1.96      1.95      2.02         1.61
  WS02006242WS02006240        1.95      1.95      2.09      2.13         0.01
  WS02006243WS02006242        1.88      1.88      2.04      0.01         0.03
  WS02006245WS02006243        1.86      1.87      1.87      1.31         1.27
  WS02006247WS02006245        1.86      1.89      1.86      3.64         1.85
  WS02006248WS02006247        1.86      1.86      1.88      0.01         0.03
  WS02006249WS02006248        1.85      1.85      1.87      3.58         0.01
  WS02006251WS02006249        1.87      1.89      1.87      2.08         1.83
  WS02006252WS02006251        2.12      2.12      2.12      2.12         0.01
  WS02006256WS02006235        3.87      3.90      5.79      1.22         0.01
  YS02001580YS02001583        0.69      0.69      0.75      0.01         0.01
  YS02001583YS02001586        0.70      0.70      0.83      0.01         0.01
  YS02001586YS02001590        0.84      0.84      0.92      0.01         0.01
  YS02001590YS02001593        0.92      0.92      0.94      0.92         0.01
  YS02001593YS02001596        0.93      0.93      1.04      0.01         0.01
  YS02001596YS02001600        1.10      1.10      1.20      0.01         0.01
  YS02001600YS02001601        1.26      1.26      1.57      0.01         0.01
  YS02001601YS02001602        1.45      1.45      1.61      1.21         0.01
  YS02001602YS02001605        1.39      1.39      1.45      2.46         0.01
  YS02001605YS02001607        1.35      1.39      1.35      1.51         1.34
  YS02001607YS02001610        0.90      0.90      0.93      0.01         0.01
  YS02001610YS02001613        0.90      0.90      0.93      0.01         0.01
  YS02001613YS02001616        0.86      0.86      0.90      0.01         0.01
  YS02001616YS02001619        0.84      0.84      0.86      0.01         0.02
  YS02001619YS02001622        0.84      0.84      0.84      0.91         0.80
  YS02001622YS02001625        0.84      0.84      1.02      0.01         0.01
  YS02001625YS02001629        0.77      0.77      1.02      0.01         0.01
  YS02001629YS02163301        1.02      1.02      1.03      0.13         0.20
  YS02001633YS02163601        1.05      1.05      1.09      0.36         0.34
  YS02001641YS02001644        0.95      0.99      0.95      1.66         0.94
  YS02001644YS02001647        0.72      0.72      0.95      0.01         0.01
  YS02001647YS02001649        0.72      0.72      0.83      0.01         0.01
  YS02001649YS02001757        0.83      0.83      0.89      0.15         0.08
  YS02001652YS02001649        0.67      0.67      0.83      0.01         0.01
  YS02001655YS02001652        0.49      0.49      0.64      0.01         0.01
  YS02001658YS02001655        0.28      0.28      0.49      0.01         0.01
  YS02001661YS02001658        0.06      0.06      0.28      0.01         0.01
  YS02001664YS02001661        0.01      0.01      0.11      0.01         0.01
  YS02001745YS02001748        0.01      0.01      0.22      0.01         0.01
  YS02001748YS02001751        0.25      0.25      0.37      0.01         0.01
  YS02001751YS02001754        0.37      0.37      0.56      0.01         0.01
  YS02001754YS02001757        0.60      0.60      0.89      0.01         0.01
  YS02001757CaochengTiaoxuchi        0.89      0.89      1.83      0.42         0.38
  YS02001759YS02001757        0.81      0.81      0.89      0.01         0.01
  YS02001762YS02001759        0.78      0.78      0.81      0.01         0.01
  YS02001765YS02001762        0.75      0.75      0.78      0.01         0.01
  YS02001767YS02001765        0.71      0.71      0.75      0.01         0.02
  YS02001770YS02001767        0.70      0.70      0.71      0.60         0.48
  YS02001774YS02001770        0.68      0.68      0.76      0.01         0.01
  YS02001779YS02001774        0.55      0.55      0.76      0.01         0.01
  YS02001783YS02001784        0.57      0.59      0.57      0.78         0.57
  YS02001784YS02001785        0.45      0.57      0.45      1.07         0.45
  YS02001786YS02001788        0.01      0.45      0.01      0.93         0.01
  YS02001790YS02001791        0.01      0.01      0.01      0.55         0.01
  YS02001793JiankangQianchi        0.01      0.01      7.19      0.01         0.01
  YS02001882YS02001884        0.53      0.53      0.54      0.01         0.01
  YS02001884YS02001887        0.57      0.57      0.58      0.01         0.01
  YS02001887YS02001890        0.60      0.60      0.61      0.13         0.01
  YS02001890YS02001895        0.52      0.52      0.63      0.01         0.01
  YS02001895YS02001898        0.51      0.51      0.52      0.01         0.01
  YS02001898YS02001901        0.52      0.52      0.57      0.01         0.01
  YS02001901YS02001904        0.56      0.56      0.57      0.01         0.01
  YS02001904YS02001907        0.56      0.56      0.91      0.01         0.01
  YS02001907YS02006553        1.10      1.10      1.17      0.01         0.01
  YS02001910YS02001907        0.63      0.63      0.88      0.01         0.01
  YS02001915YS02001910        0.53      0.53      0.63      0.01         0.01
  YS02001918YS02001915        0.44      0.44      0.53      0.01         0.01
  YS02001920YS02001918        0.44      0.44      0.45      0.01         0.01
  YS02001923YS02001920        0.39      0.39      0.45      0.01         0.01
  YS02001926YS02001923        0.12      0.12      0.15      0.01         0.01
  YS02001929YS02001926        0.01      0.01      0.15      0.01         0.01
  YS02006553YS02006556        0.74      0.74      0.90      0.01         0.01
  YS02006556YS02006558        0.82      0.82      0.92      0.01         0.01
  YS02006558YS02006561        0.47      0.72      0.47      1.02         0.47
  YS02006561YS02001783        0.40      0.40      0.59      0.01         0.01
  YS02163301YS02001633        1.03      1.03      1.07      0.01         0.01
  YS02163601YS02164001        0.99      0.99      1.09      0.13         0.01
  YS02164001YS02001641        0.98      0.99      0.99      0.75         0.65
  
  
  ***************
  Pumping Summary
  ***************
  
  ---------------------------------------------------------------------------------------------------------
                                                  Min       Avg       Max     Total     Power    % Time Off
                        Percent   Number of      Flow      Flow      Flow    Volume     Usage    Pump Curve
  Pump                 Utilized   Start-Ups       LPS       LPS       LPS  10^6 ltr     Kw-hr    Low   High
  ---------------------------------------------------------------------------------------------------------
  CC-R1                   19.27           6      0.00    683.00    683.00     3.791     71.21    0.0   16.3
  CC-R2                   17.24           7      0.00    683.00    683.00     3.390     63.00    0.0   30.3
  CC-S1                   44.72           7      0.00    200.00    200.00     2.576     15.00    0.0    0.0
  CC-S2                   28.32           6      0.00    200.00    200.00     1.631      9.19    0.0    0.0
  JK-R1                    5.79          12      0.00   1000.00   1000.00     1.669     17.12    0.0    0.0
  JK-R2                    4.96           9      0.00   1000.00   1000.00     1.428     12.69    0.0    0.0
  JK-S                    15.20          14      0.00    300.00    300.00     1.313     20.91    0.0    0.0
  

  Analysis begun on:  Tue Apr 15 14:54:05 2025
  Analysis ended on:  Tue Apr 15 14:54:07 2025
  Total elapsed time: 00:00:02