
  EPA STORM WATER MANAGEMENT MODEL - VERSION 5.2 (Build 5.2.4)
  PYSWMM TOOLKIT API - VERSION v1.0 (2023-11-27)
  ------------------------------------------------------------

  WARNING 04: minimum elevation drop used for Conduit WS02004404WS02004405
  WARNING 03: negative offset ignored for Link YS02001904YS02001907
  
  ****************
  Analysis Options
  ****************
  Flow Units ............... LPS
  Process Models:
    Rainfall/Runoff ........ YES
    RDII ................... NO
    Snowmelt ............... NO
    Groundwater ............ NO
    Flow Routing ........... YES
    Ponding Allowed ........ NO
    Water Quality .......... NO
  Infiltration Method ...... HORTON
  Flow Routing Method ...... DYNWAVE
  Surcharge Method ......... EXTRAN
  Starting Date ............ 08/28/2015 08:00:00
  Ending Date .............. 08/28/2015 16:00:00
  Antecedent Dry Days ...... 8.0
  Report Time Step ......... 00:01:00
  Wet Time Step ............ 00:01:00
  Dry Time Step ............ 00:01:00
  Routing Time Step ........ 30.00 sec
  Variable Time Step ....... YES
  Maximum Trials ........... 8
  Number of Threads ........ 4
  Head Tolerance ........... 0.001500 m
  
  
  **************************        Volume         Depth
  Runoff Quantity Continuity     hectare-m            mm
  **************************     ---------       -------
  Total Precipitation ......         1.548        46.668
  Evaporation Loss .........         0.000         0.000
  Infiltration Loss ........         0.095         2.858
  Surface Runoff ...........         1.421        42.828
  Final Storage ............         0.033         0.993
  Continuity Error (%) .....        -0.024
  
  
  **************************        Volume        Volume
  Flow Routing Continuity        hectare-m      10^6 ltr
  **************************     ---------     ---------
  Dry Weather Inflow .......         0.025         0.251
  Wet Weather Inflow .......         1.421        14.209
  Groundwater Inflow .......         0.000         0.000
  RDII Inflow ..............         0.000         0.000
  External Inflow ..........         0.083         0.834
  External Outflow .........         1.194        11.936
  Flooding Loss ............         0.304         3.041
  Evaporation Loss .........         0.000         0.000
  Exfiltration Loss ........         0.000         0.000
  Initial Stored Volume ....         0.243         2.431
  Final Stored Volume ......         0.278         2.777
  Continuity Error (%) .....        -0.165
  
  
  *************************
  Highest Continuity Errors
  *************************
  Node YS02001583 (-6.07%)
  Node YS02001884 (5.04%)
  Node YS02001774 (1.32%)
  Node WS02006256 (-1.09%)
  
  
  ***************************
  Time-Step Critical Elements
  ***************************
  Link WS02006252WS02006251 (51.74%)
  Link WS02004404WS02004405 (14.06%)
  Link WS02006238WS02006235 (13.18%)
  Link WS02006235WS02006234 (7.08%)
  Link YS02001791YS02001793 (3.57%)
  
  
  ********************************
  Highest Flow Instability Indexes
  ********************************
  Link WS02006113WS02006111 (43)
  Link WS02006111WS02006112 (24)
  Link WS02004404WS02004405 (17)
  Link WS02004403WS02004404 (15)
  Link WS02006256WS02006235 (14)
  
  
  *********************************
  Most Frequent Nonconverging Nodes
  *********************************
  Node CC-1 (8.96%)
  Node CC-2 (8.96%)
  Node JK-1 (8.96%)
  Node JK-2 (8.96%)
  Node WSC (8.96%)
  
  
  *************************
  Routing Time Step Summary
  *************************
  Minimum Time Step           :     0.00 sec
  Average Time Step           :     1.96 sec
  Maximum Time Step           :     8.35 sec
  % of Time in Steady State   :     0.00
  Average Iterations per Step :     2.83
  % of Steps Not Converging   :     8.96
  Time Step Frequencies       :
     30.000 - 13.228 sec      :     0.00 %
     13.228 -  5.833 sec      :     8.09 %
      5.833 -  2.572 sec      :    20.87 %
      2.572 -  1.134 sec      :    14.48 %
      1.134 -  0.500 sec      :    56.56 %
  
  
  ***************************
  Subcatchment Runoff Summary
  ***************************
  
  ------------------------------------------------------------------------------------------------------------------------------
                            Total      Total      Total      Total     Imperv       Perv      Total       Total     Peak  Runoff
                           Precip      Runon       Evap      Infil     Runoff     Runoff     Runoff      Runoff   Runoff   Coeff
  Subcatchment                 mm         mm         mm         mm         mm         mm         mm    10^6 ltr      LPS
  ------------------------------------------------------------------------------------------------------------------------------
  sub60                     46.67       0.00       0.00       1.71      39.86       3.89      43.75        0.57   434.94   0.938
  sub61                     46.67       0.00       0.00       2.49      37.60       5.45      43.05        0.79   602.65   0.922
  sub62                     46.67       0.00       0.00       1.14      41.65       2.59      44.24        1.21   841.75   0.948
  sub63                     46.67       0.00       0.00       4.62      32.16       8.92      41.08        0.93   664.26   0.880
  sub64                     46.67       0.00       0.00       2.33      38.46       4.67      43.13        1.04   678.53   0.924
  sub65                     46.67       0.00       0.00       2.02      39.35       4.05      43.40        1.19   754.99   0.930
  sub66                     46.67       0.00       0.00       5.72      32.06       7.82      39.88        1.86   959.56   0.855
  sub67                     46.67       0.00       0.00       1.10      41.69       2.64      44.32        0.82   664.80   0.950
  sub68                     46.67       0.00       0.00       2.06      38.95       4.47      43.42        1.19   862.34   0.930
  sub69                     46.67       0.00       0.00       1.82      39.56       5.18      44.74        1.66  1005.88   0.959
  sub70                     46.67       0.00       0.00       6.09      30.64       9.78      40.41        1.17   537.54   0.866
  sub71                     46.67       0.00       0.00       1.17      41.61       2.56      44.17        1.16   734.68   0.946
  sub72                     46.67       0.00       0.00       1.05      42.00       2.22      44.22        0.61   350.03   0.948
  
  
  ******************
  Node Depth Summary
  ******************
  
  ---------------------------------------------------------------------------------
                                 Average  Maximum  Maximum  Time of Max    Reported
                                   Depth    Depth      HGL   Occurrence   Max Depth
  Node                 Type       Meters   Meters   Meters  days hr:min      Meters
  ---------------------------------------------------------------------------------
  WS02003060           JUNCTION     0.22     0.38     5.32     0  02:37        0.38
  WS02003066           JUNCTION     0.19     0.30     5.85     0  02:36        0.30
  WS02003067           JUNCTION     0.49     0.70     6.02     0  02:36        0.70
  WS02003069           JUNCTION     0.25     0.43     5.01     0  02:37        0.43
  WS02003072           JUNCTION     0.31     0.50     4.87     0  02:38        0.50
  WS02003073           JUNCTION     0.17     0.30     4.36     0  02:39        0.30
  WS02004401           JUNCTION     0.57     0.88     6.88     0  02:34        0.88
  WS02004402           JUNCTION     0.61     0.91     6.87     0  02:34        0.90
  WS02004403           JUNCTION     0.63     0.92     6.85     0  02:34        0.92
  WS02004404           JUNCTION     0.71     1.05     6.90     0  02:31        1.05
  WS02004405           JUNCTION     0.69     0.97     6.82     0  02:34        0.97
  WS02004406           JUNCTION     0.71     0.96     6.79     0  02:34        0.96
  WS02004407           JUNCTION     0.17     0.30     6.61     0  02:34        0.30
  WS02004409           JUNCTION     0.37     0.67     6.44     0  02:36        0.67
  WS02004410           JUNCTION     0.39     0.68     6.40     0  02:37        0.68
  WS02004411           JUNCTION     0.42     0.69     6.37     0  02:37        0.69
  WS02004412           JUNCTION     0.44     0.70     6.34     0  02:37        0.70
  WS02004413           JUNCTION     0.60     0.86     6.33     0  02:37        0.86
  WS02006109           JUNCTION     0.62     1.24     7.85     0  02:37        1.24
  WS02006110           JUNCTION     0.62     1.16     7.74     0  02:23        1.05
  WS02006111           JUNCTION     0.17     0.29     6.99     0  02:58        0.29
  WS02006112           JUNCTION     0.72     1.09     6.98     0  02:23        1.07
  WS02006113           JUNCTION     0.25     0.46     7.35     0  02:46        0.46
  WS02006115           JUNCTION     0.45     0.77     6.91     0  02:34        0.77
  WS02006116           JUNCTION     0.54     0.86     6.90     0  02:35        0.86
  WS02006228           JUNCTION     0.60     1.18     7.84     0  02:37        1.18
  WS02006229           JUNCTION     0.57     1.19     7.88     0  02:23        1.10
  WS02006230           JUNCTION     0.56     1.35     8.09     0  02:23        1.18
  WS02006231           JUNCTION     0.38     1.08     8.21     0  02:23        1.02
  WS02006232           JUNCTION     0.51     1.25     8.29     0  02:23        1.25
  WS02006234           JUNCTION     0.42     1.25     8.41     0  02:23        1.25
  WS02006235           JUNCTION     0.46     1.40     8.56     0  02:44        1.31
  WS02006238           JUNCTION     0.49     1.52     8.66     0  02:15        1.34
  WS02006239           JUNCTION     0.45     2.03     9.24     0  02:15        1.34
  WS02006240           JUNCTION     0.42     1.61     8.90     0  02:15        1.31
  WS02006242           JUNCTION     0.49     1.42     8.69     0  02:15        1.37
  WS02006243           JUNCTION     0.40     1.26     8.68     0  02:44        1.25
  WS02006245           JUNCTION     0.40     1.20     8.69     0  02:44        1.20
  WS02006247           JUNCTION     0.43     1.19     8.69     0  03:06        1.19
  WS02006248           JUNCTION     0.39     1.10     8.69     0  02:37        1.10
  WS02006249           JUNCTION     0.42     1.09     8.69     0  02:15        1.09
  WS02006251           JUNCTION     0.42     1.42     9.09     0  02:15        1.14
  WS02006252           JUNCTION     0.33     1.50     9.74     0  00:00        0.69
  WS02006256           JUNCTION     0.87     2.35     9.28     0  00:00        2.35
  WSF200               JUNCTION     0.16     0.29     5.52     0  02:36        0.29
  YS02001580           JUNCTION     0.07     1.05     9.59     0  02:08        0.77
  YS02001583           JUNCTION     0.10     1.14     9.64     0  02:08        0.82
  YS02001586           JUNCTION     0.16     1.13     9.30     0  02:08        1.13
  YS02001590           JUNCTION     0.25     1.40     9.26     0  02:05        1.40
  YS02001593           JUNCTION     0.18     1.36     9.22     0  02:08        1.29
  YS02001596           JUNCTION     0.24     1.70     9.12     0  02:08        1.65
  YS02001600           JUNCTION     0.30     1.87     9.00     0  02:06        1.86
  YS02001601           JUNCTION     0.49     2.06     8.90     0  02:06        2.06
  YS02001602           JUNCTION     0.40     1.87     8.77     0  02:07        1.87
  YS02001605           JUNCTION     0.38     1.78     8.68     0  02:08        1.78
  YS02001607           JUNCTION     0.38     1.66     8.51     0  02:24        1.66
  YS02001610           JUNCTION     0.43     1.68     8.48     0  02:08        1.68
  YS02001613           JUNCTION     0.38     1.68     8.52     0  02:08        1.68
  YS02001616           JUNCTION     0.31     1.61     8.52     0  02:08        1.60
  YS02001619           JUNCTION     0.29     1.61     8.54     0  02:08        1.61
  YS02001622           JUNCTION     0.28     1.58     8.49     0  02:08        1.57
  YS02001625           JUNCTION     0.55     1.78     8.38     0  02:08        1.78
  YS02001629           JUNCTION     0.39     1.85     8.40     0  02:07        1.85
  YS02001633           JUNCTION     0.47     2.03     8.49     0  02:11        2.00
  YS02001641           JUNCTION     0.46     1.95     8.39     0  02:12        1.94
  YS02001644           JUNCTION     0.46     1.92     8.35     0  02:11        1.92
  YS02001647           JUNCTION     0.24     1.81     8.42     0  02:12        1.72
  YS02001649           JUNCTION     0.27     2.05     8.44     0  02:12        1.91
  YS02001652           JUNCTION     0.17     2.16     8.76     0  02:12        1.73
  YS02001655           JUNCTION     0.13     2.20     9.05     0  02:12        1.50
  YS02001658           JUNCTION     0.09     2.30     9.44     0  02:12        1.24
  YS02001661           JUNCTION     0.13     2.02     9.43     0  02:13        1.00
  YS02001664           JUNCTION     0.05     0.62     8.55     0  02:13        0.56
  YS02001745           JUNCTION     0.05     0.87     8.38     0  02:12        0.86
  YS02001748           JUNCTION     0.08     2.27     9.35     0  02:12        1.25
  YS02001751           JUNCTION     0.11     2.20     9.08     0  02:12        1.41
  YS02001754           JUNCTION     0.15     2.20     8.81     0  02:12        1.63
  YS02001757           JUNCTION     0.30     2.19     8.45     0  02:12        1.93
  YS02001759           JUNCTION     0.24     2.18     8.54     0  02:12        1.93
  YS02001762           JUNCTION     0.23     2.15     8.55     0  02:12        1.92
  YS02001765           JUNCTION     0.21     2.10     8.55     0  02:12        1.89
  YS02001767           JUNCTION     0.21     2.03     8.52     0  02:11        1.88
  YS02001770           JUNCTION     0.22     1.95     8.44     0  02:12        1.92
  YS02001774           JUNCTION     0.29     2.02     8.44     0  02:12        1.97
  YS02001779           JUNCTION     0.13     1.68     8.37     0  02:11        1.68
  YS02001783           JUNCTION     0.21     1.64     7.78     0  02:10        1.23
  YS02001784           JUNCTION     0.23     1.34     7.41     0  02:10        1.12
  YS02001786           JUNCTION     0.19     1.12     7.15     0  02:10        0.87
  YS02001788           JUNCTION     0.14     0.62     6.60     0  02:12        0.62
  YS02001790           JUNCTION     0.16     0.72     6.37     0  02:16        0.72
  YS02001791           JUNCTION     0.10     0.44     5.91     0  02:16        0.43
  YS02001793           JUNCTION     0.05     0.28     5.11     0  02:12        0.27
  YS02001882           JUNCTION     0.27     1.72     8.44     0  02:10        1.67
  YS02001884           JUNCTION     0.36     1.80     8.42     0  02:10        1.75
  YS02001887           JUNCTION     0.44     1.85     8.39     0  02:10        1.84
  YS02001890           JUNCTION     0.47     1.81     8.32     0  02:09        1.81
  YS02001895           JUNCTION     0.24     1.57     8.32     0  02:12        1.57
  YS02001898           JUNCTION     0.25     1.57     8.30     0  02:10        1.56
  YS02001901           JUNCTION     0.36     1.68     8.29     0  02:10        1.67
  YS02001904           JUNCTION     0.34     1.64     8.27     0  02:10        1.63
  YS02001907           JUNCTION     0.67     1.96     8.25     0  02:10        1.96
  YS02001910           JUNCTION     0.46     1.97     8.48     0  02:10        1.86
  YS02001915           JUNCTION     0.27     1.92     8.64     0  02:10        1.74
  YS02001918           JUNCTION     0.14     1.81     8.88     0  02:10        1.39
  YS02001920           JUNCTION     0.22     2.14     9.15     0  02:11        1.45
  YS02001923           JUNCTION     0.10     2.03     9.29     0  02:11        1.21
  YS02001926           JUNCTION     0.14     1.90     9.35     0  02:11        1.02
  YS02001929           JUNCTION     0.08     1.78     9.47     0  02:11        0.79
  YS02006553           JUNCTION     0.67     2.08     8.37     0  02:10        1.98
  YS02006556           JUNCTION     0.64     2.18     8.49     0  02:10        1.97
  YS02006558           JUNCTION     0.69     2.26     8.52     0  02:10        2.02
  YS02006561           JUNCTION     0.13     1.49     8.15     0  02:10        0.89
  YS02163301           JUNCTION     0.41     1.93     8.45     0  02:11        1.90
  YS02163601           JUNCTION     0.51     2.05     8.45     0  02:11        2.01
  YS02164001           JUNCTION     0.44     1.97     8.43     0  02:11        1.93
  CC-1                 OUTFALL      0.00     0.00     0.00     0  00:00        0.00
  CC-2                 OUTFALL      0.00     0.00     0.00     0  00:00        0.00
  JK-1                 OUTFALL      0.00     0.00     0.00     0  00:00        0.00
  JK-2                 OUTFALL      0.00     0.00     0.00     0  00:00        0.00
  WSC                  OUTFALL      0.17     0.30     0.97     0  02:40        0.30
  CC-storage           STORAGE      0.89     1.46     6.96     0  02:34        1.46
  JK-storage           STORAGE      2.93     4.23     5.03     0  02:25        4.19
  
  
  *******************
  Node Inflow Summary
  *******************
  
  -------------------------------------------------------------------------------------------------
                                  Maximum  Maximum                  Lateral       Total        Flow
                                  Lateral    Total  Time of Max      Inflow      Inflow     Balance
                                   Inflow   Inflow   Occurrence      Volume      Volume       Error
  Node                 Type           LPS      LPS  days hr:min    10^6 ltr    10^6 ltr     Percent
  -------------------------------------------------------------------------------------------------
  WS02003060           JUNCTION     16.53   553.93     0  02:38       0.476        4.77       0.073
  WS02003066           JUNCTION      0.00   537.04     0  02:38           0         4.3       0.042
  WS02003067           JUNCTION      0.00   537.00     0  02:37           0         4.3       0.112
  WS02003069           JUNCTION      0.32   553.99     0  02:37     0.00922        4.78       0.120
  WS02003072           JUNCTION      0.00   553.65     0  02:38           0        4.77       0.190
  WS02003073           JUNCTION      1.82   555.40     0  02:39      0.0524        4.81       0.160
  WS02004401           JUNCTION      0.00   539.34     0  02:34           0        4.42       0.259
  WS02004402           JUNCTION      0.00   541.54     0  02:34           0         4.4       0.260
  WS02004403           JUNCTION      0.00   540.12     0  02:34           0        4.39       0.250
  WS02004404           JUNCTION      0.16   560.41     0  02:30     0.00467        4.39       0.248
  WS02004405           JUNCTION      0.04   601.91     0  02:33      0.0011        4.38       0.230
  WS02004406           JUNCTION      0.00   544.46     0  02:36           0        4.37       0.511
  WS02004407           JUNCTION      0.00   540.14     0  02:34           0        4.35       0.046
  WS02004409           JUNCTION      0.00   539.05     0  02:34           0        4.34       0.099
  WS02004410           JUNCTION      0.00   538.31     0  02:34           0        4.34       0.138
  WS02004411           JUNCTION      0.00   537.78     0  02:35           0        4.33       0.166
  WS02004412           JUNCTION      0.00   537.43     0  02:37           0        4.33       0.211
  WS02004413           JUNCTION      0.00   537.36     0  02:35           0        4.32       0.359
  WS02006109           JUNCTION      1.23   559.03     0  02:23      0.0354        4.47       0.216
  WS02006110           JUNCTION      0.00   560.75     0  02:23           0        4.46       0.167
  WS02006111           JUNCTION      0.00   562.50     0  02:46           0        4.45       0.026
  WS02006112           JUNCTION      0.00   543.20     0  02:58           0        4.45       0.412
  WS02006113           JUNCTION      0.00   567.47     0  02:37           0        4.45       0.050
  WS02006115           JUNCTION      0.00   551.79     0  03:06           0        4.43       0.178
  WS02006116           JUNCTION      0.00   538.51     0  02:27           0        4.42       0.158
  WS02006228           JUNCTION      0.00   556.86     0  02:23           0        4.44       0.121
  WS02006229           JUNCTION      0.00   555.83     0  02:23           0        4.45       0.150
  WS02006230           JUNCTION     10.28   587.57     0  02:55       0.296        4.45       0.142
  WS02006231           JUNCTION      0.00   572.73     0  02:55           0        4.15      -0.138
  WS02006232           JUNCTION      0.00   571.88     0  02:55           0        4.17       0.348
  WS02006234           JUNCTION      0.00   566.90     0  02:55           0        4.15      -0.286
  WS02006235           JUNCTION      0.00   561.06     0  02:36           0        4.24       0.324
  WS02006238           JUNCTION      0.00   426.32     0  02:40           0        3.59      -0.203
  WS02006239           JUNCTION      0.00   424.17     0  02:40           0        3.54      -0.136
  WS02006240           JUNCTION      0.00   421.17     0  03:17           0         3.5      -0.045
  WS02006242           JUNCTION      0.00   421.01     0  03:17           0        3.48       0.033
  WS02006243           JUNCTION      0.00   421.03     0  03:17           0        3.46      -0.004
  WS02006245           JUNCTION      0.00   420.50     0  02:40           0        3.47       0.430
  WS02006247           JUNCTION      0.00   421.75     0  02:40           0        3.47       0.033
  WS02006248           JUNCTION      0.00   423.26     0  02:40           0        3.47       0.054
  WS02006249           JUNCTION      0.00   459.02     0  00:00           0        3.63       0.471
  WS02006251           JUNCTION      0.08   408.15     0  02:15     0.00222        3.63      -0.039
  WS02006252           JUNCTION      0.00   400.00     0  00:00           0        3.62      -0.089
  WS02006256           JUNCTION      0.00   300.00     0  00:00           0       0.977      -1.082
  WSF200               JUNCTION      0.00   537.09     0  02:38           0        4.29       0.021
  YS02001580           JUNCTION      0.00   125.92     0  02:08           0     0.00445       0.517
  YS02001583           JUNCTION      0.00   184.90     0  02:08           0      0.0153      -5.721
  YS02001586           JUNCTION    537.54   537.56     0  02:15        1.17        1.18       0.099
  YS02001590           JUNCTION      0.00   317.88     0  02:19           0        1.03      -0.036
  YS02001593           JUNCTION      0.00   318.08     0  02:20           0        1.03       0.001
  YS02001596           JUNCTION      0.00   318.06     0  02:14           0        1.03      -0.007
  YS02001600           JUNCTION      0.00   318.01     0  02:19           0        1.03       0.015
  YS02001601           JUNCTION   1005.88  1323.38     0  02:14        1.66        2.69       0.028
  YS02001602           JUNCTION      0.00   525.23     0  02:07           0        1.88       0.024
  YS02001605           JUNCTION      0.00   524.99     0  02:07           0         1.8       0.028
  YS02001607           JUNCTION      0.00   525.70     0  02:07           0         1.8       0.107
  YS02001610           JUNCTION      0.00   530.10     0  02:07           0        1.83       0.116
  YS02001613           JUNCTION      0.00   532.22     0  02:07           0        1.56       0.101
  YS02001616           JUNCTION      0.00   536.14     0  02:07           0        1.56       0.031
  YS02001619           JUNCTION    959.56   959.56     0  02:15        1.86        3.39      -0.000
  YS02001622           JUNCTION      0.00   940.79     0  02:07           0        3.36      -0.001
  YS02001625           JUNCTION      0.00  1053.10     0  02:16           0         3.4       0.251
  YS02001629           JUNCTION      0.00   949.80     0  02:07           0         2.9       0.014
  YS02001633           JUNCTION    755.19  1392.06     0  02:10         1.2        4.04       0.087
  YS02001641           JUNCTION      0.00  1391.45     0  02:10           0        3.99       0.070
  YS02001644           JUNCTION    678.57  1827.82     0  02:10        1.04        5.02       0.061
  YS02001647           JUNCTION      0.00  1827.31     0  02:10           0        4.93       0.004
  YS02001649           JUNCTION      0.00  2092.31     0  02:09           0        5.87       0.001
  YS02001652           JUNCTION      0.00   809.97     0  02:13           0       0.936      -0.130
  YS02001655           JUNCTION      0.15   809.95     0  02:13     0.00443       0.937       0.089
  YS02001658           JUNCTION      0.00   809.68     0  02:13           0       0.933      -0.053
  YS02001661           JUNCTION      0.00   810.94     0  02:13           0       0.933       0.031
  YS02001664           JUNCTION    664.26   664.26     0  02:14       0.933       0.933      -0.013
  YS02001745           JUNCTION    434.95   504.84     0  02:12       0.575       0.576       0.280
  YS02001748           JUNCTION      0.04   657.39     0  02:12      0.0013       0.577      -0.444
  YS02001751           JUNCTION      0.01   556.16     0  02:13    0.000317       0.584       0.130
  YS02001754           JUNCTION      0.26   556.52     0  02:13     0.00749       0.596      -0.233
  YS02001757           JUNCTION      0.00  3492.26     0  02:13           0        8.47       0.054
  YS02001759           JUNCTION    602.69  1381.39     0  02:12       0.791        2.01      -0.011
  YS02001762           JUNCTION      0.00   798.75     0  02:12           0        1.21      -0.001
  YS02001765           JUNCTION      0.00   798.40     0  02:12           0        1.21      -0.013
  YS02001767           JUNCTION      0.54   798.59     0  02:12      0.0154        1.21      -0.003
  YS02001770           JUNCTION    841.90   841.90     0  02:14        1.22        1.26      -0.021
  YS02001774           JUNCTION      0.00   408.62     0  02:11           0      0.0742       1.338
  YS02001779           JUNCTION      0.01   410.15     0  02:11    0.000144      0.0328      -1.316
  YS02001783           JUNCTION      0.00  1159.79     0  02:12           0         3.2       0.002
  YS02001784           JUNCTION      1.06  1160.83     0  02:12      0.0305        3.23       0.015
  YS02001786           JUNCTION      0.06  1160.86     0  02:12     0.00162        3.23       0.020
  YS02001788           JUNCTION      0.07  1160.81     0  02:11     0.00204        3.23       0.009
  YS02001790           JUNCTION      0.15  1174.33     0  02:12     0.00446        3.24       0.026
  YS02001791           JUNCTION      0.00  1282.34     0  02:12           0        3.24      -0.024
  YS02001793           JUNCTION      0.00  1239.99     0  02:14           0        3.24       0.006
  YS02001882           JUNCTION      0.00    52.68     0  02:09           0      0.0124       4.668
  YS02001884           JUNCTION      0.00    72.55     0  02:09           0      0.0482       5.313
  YS02001887           JUNCTION    665.25   665.29     0  02:13       0.838       0.871       0.503
  YS02001890           JUNCTION      0.00   665.47     0  02:13           0        0.83       0.591
  YS02001895           JUNCTION      0.00   516.41     0  02:16           0       0.795       0.166
  YS02001898           JUNCTION      0.00   516.68     0  02:15           0       0.794       0.017
  YS02001901           JUNCTION      0.00   516.63     0  02:15           0       0.797       0.399
  YS02001904           JUNCTION      0.00   517.03     0  02:16           0       0.801       0.331
  YS02001907           JUNCTION      0.00  1621.91     0  02:15           0        2.64       0.650
  YS02001910           JUNCTION      0.00  1106.37     0  02:15           0        1.84       0.377
  YS02001915           JUNCTION    734.70  1105.72     0  02:15        1.16        1.89       0.074
  YS02001918           JUNCTION      0.00   468.05     0  02:10           0       0.765       0.002
  YS02001920           JUNCTION      2.87   467.91     0  02:10      0.0827       0.746       0.120
  YS02001923           JUNCTION      0.04   469.05     0  02:10     0.00109       0.649      -0.086
  YS02001926           JUNCTION      0.05   725.45     0  02:11      0.0015       0.627      -0.035
  YS02001929           JUNCTION    350.03   550.40     0  02:11       0.608       0.612       0.011
  YS02006553           JUNCTION      0.00   796.57     0  02:25           0        2.02       0.585
  YS02006556           JUNCTION      0.00   797.54     0  02:25           0        2.03       0.382
  YS02006558           JUNCTION    863.22  1174.23     0  02:10        1.22        3.23       0.104
  YS02006561           JUNCTION      0.00  1173.77     0  02:10           0         3.2       0.000
  YS02163301           JUNCTION      0.00   929.93     0  02:09           0        2.89       0.053
  YS02163601           JUNCTION      0.11  1391.30     0  02:10     0.00317        3.99       0.126
  YS02164001           JUNCTION      0.00  1391.14     0  02:10           0        3.98       0.058
  CC-1                 OUTFALL       0.00   683.00     0  00:00           0        3.25       0.000
  CC-2                 OUTFALL       0.00   683.00     0  00:00           0        1.63       0.000
  JK-1                 OUTFALL       0.00  1000.00     0  00:00           0        1.22       0.000
  JK-2                 OUTFALL       0.00  1000.00     0  00:00           0        1.03       0.000
  WSC                  OUTFALL       0.00   555.30     0  02:40           0        4.81       0.000
  CC-storage           STORAGE       0.00  3493.91     0  02:13           0        10.7      -0.107
  JK-storage           STORAGE       0.00  1257.11     0  02:15           0        3.39       0.046
  
  
  **********************
  Node Surcharge Summary
  **********************
  
  Surcharging occurs when water rises above the top of the highest conduit.
  ---------------------------------------------------------------------
                                               Max. Height   Min. Depth
                                   Hours       Above Crown    Below Rim
  Node                 Type      Surcharged         Meters       Meters
  ---------------------------------------------------------------------
  WS02004404           JUNCTION        0.01          0.049        2.731
  WS02006109           JUNCTION        1.62          0.415        1.405
  WS02006110           JUNCTION        0.45          0.247        1.603
  WS02006112           JUNCTION        0.56          0.094        1.586
  WS02006228           JUNCTION        1.61          0.355        1.845
  WS02006229           JUNCTION        1.64          0.390        2.060
  WS02006230           JUNCTION        0.46          0.270        1.300
  WS02006231           JUNCTION        0.55          0.374        1.156
  WS02006232           JUNCTION        1.65          0.553        0.927
  WS02006234           JUNCTION        0.79          0.530        0.710
  WS02006235           JUNCTION        1.60          0.690        0.600
  WS02006238           JUNCTION        1.63          0.799        0.631
  WS02006239           JUNCTION        1.59          1.290        0.000
  WS02006240           JUNCTION        1.60          0.900        0.490
  WS02006242           JUNCTION        1.61          0.694        0.126
  WS02006243           JUNCTION        1.59          0.549        0.221
  WS02006245           JUNCTION        1.59          0.495        0.355
  WS02006247           JUNCTION        1.59          0.483        0.277
  WS02006248           JUNCTION        1.58          0.380        0.000
  WS02006249           JUNCTION        1.58          0.390        0.000
  WS02006251           JUNCTION        0.59          0.387        0.793
  WS02006252           JUNCTION        1.80          1.100        0.000
  WS02006256           JUNCTION        6.06          2.050        0.000
  YS02001580           JUNCTION        0.41          0.450        0.000
  YS02001583           JUNCTION        0.41          0.500        0.000
  YS02001586           JUNCTION        0.52          0.510        0.000
  YS02001590           JUNCTION        0.58          0.750        0.000
  YS02001593           JUNCTION        0.58          0.737        0.103
  YS02001596           JUNCTION        0.68          0.969        0.101
  YS02001600           JUNCTION        0.80          1.190        0.000
  YS02001601           JUNCTION        1.14          1.440        0.000
  YS02001602           JUNCTION        1.03          1.270        0.000
  YS02001605           JUNCTION        0.97          1.180        0.000
  YS02001607           JUNCTION        0.55          0.658        0.022
  YS02001610           JUNCTION        0.57          0.680        0.000
  YS02001613           JUNCTION        0.54          0.684        0.016
  YS02001616           JUNCTION        0.51          0.610        0.000
  YS02001619           JUNCTION        0.50          0.610        0.000
  YS02001622           JUNCTION        0.49          0.583        0.037
  YS02001625           JUNCTION        0.65          0.780        0.000
  YS02001629           JUNCTION        0.45          0.470        0.000
  YS02001633           JUNCTION        0.66          1.012        0.048
  YS02001641           JUNCTION        0.59          0.952        0.148
  YS02001644           JUNCTION        0.56          0.920        0.000
  YS02001647           JUNCTION        0.38          0.809        0.091
  YS02001649           JUNCTION        0.47          1.050        0.000
  YS02001652           JUNCTION        0.32          1.130        0.000
  YS02001655           JUNCTION        0.21          1.200        0.000
  YS02001658           JUNCTION        0.10          1.300        0.000
  YS02001661           JUNCTION        0.01          0.954        0.436
  YS02001748           JUNCTION        0.02          1.190        0.000
  YS02001751           JUNCTION        0.14          1.200        0.000
  YS02001754           JUNCTION        0.24          1.150        0.000
  YS02001757           JUNCTION        0.51          1.189        0.021
  YS02001759           JUNCTION        0.42          1.178        0.032
  YS02001762           JUNCTION        0.40          1.150        0.000
  YS02001765           JUNCTION        0.36          1.100        0.000
  YS02001767           JUNCTION        0.34          1.030        0.000
  YS02001770           JUNCTION        0.32          0.920        0.000
  YS02001774           JUNCTION        0.38          1.015        0.035
  YS02001779           JUNCTION        0.25          0.680        0.000
  YS02001783           JUNCTION        0.40          0.839        0.761
  YS02001784           JUNCTION        0.37          0.539        0.951
  YS02001786           JUNCTION        0.28          0.321        1.109
  YS02001882           JUNCTION        0.35          0.721        0.109
  YS02001884           JUNCTION        0.36          0.745        0.125
  YS02001887           JUNCTION        0.39          0.798        0.152
  YS02001890           JUNCTION        0.40          0.760        0.000
  YS02001895           JUNCTION        0.34          0.574        0.176
  YS02001898           JUNCTION        0.33          0.539        0.201
  YS02001901           JUNCTION        0.38          0.684        0.186
  YS02001904           JUNCTION        0.37          0.638        0.212
  YS02001907           JUNCTION        0.57          0.950        0.000
  YS02001910           JUNCTION        0.42          0.974        0.126
  YS02001915           JUNCTION        0.35          0.919        0.081
  YS02001918           JUNCTION        0.27          0.810        0.000
  YS02001920           JUNCTION        0.29          1.140        0.000
  YS02001923           JUNCTION        0.01          0.820        0.000
  YS02001926           JUNCTION        0.03          0.900        0.000
  YS02001929           JUNCTION        0.01          0.780        0.000
  YS02006553           JUNCTION        0.59          1.081        0.109
  YS02006556           JUNCTION        0.50          1.144        0.206
  YS02006558           JUNCTION        0.49          1.157        0.243
  YS02006561           JUNCTION        0.24          0.690        0.460
  YS02163301           JUNCTION        0.64          0.930        0.100
  YS02163601           JUNCTION        0.68          1.053        0.027
  YS02164001           JUNCTION        0.60          0.970        0.130
  
  
  *********************
  Node Flooding Summary
  *********************
  
  Flooding refers to all water that overflows a node, whether it ponds or not.
  --------------------------------------------------------------------------
                                                             Total   Maximum
                                 Maximum   Time of Max       Flood    Ponded
                        Hours       Rate    Occurrence      Volume     Depth
  Node                 Flooded       LPS   days hr:min    10^6 ltr    Meters
  --------------------------------------------------------------------------
  WS02006239              0.01     60.50      0  02:15       0.000     0.000
  WS02006248              0.01      1.91      0  03:06       0.000     0.000
  WS02006249              0.57    111.06      0  02:15       0.138     0.000
  WS02006252              0.01    245.63      0  00:00       0.000     0.000
  WS02006256              0.90    293.19      0  00:00       0.287     0.000
  YS02001580              0.01    113.93      0  02:08       0.001     0.000
  YS02001583              0.01     92.98      0  02:08       0.000     0.000
  YS02001586              0.31    219.94      0  02:15       0.132     0.000
  YS02001590              0.01     46.19      0  02:05       0.000     0.000
  YS02001600              0.01      5.21      0  02:06       0.000     0.000
  YS02001601              0.46    925.50      0  02:14       0.815     0.000
  YS02001602              0.37     61.93      0  02:14       0.072     0.000
  YS02001605              0.01      1.15      0  02:08       0.000     0.000
  YS02001610              0.31    442.52      0  02:16       0.296     0.000
  YS02001616              0.01     13.41      0  02:08       0.000     0.000
  YS02001619              0.01      8.58      0  02:08       0.000     0.000
  YS02001625              0.28   1052.88      0  02:16       0.542     0.000
  YS02001629              0.07    158.86      0  02:13       0.022     0.000
  YS02001644              0.08    490.63      0  02:13       0.076     0.000
  YS02001649              0.01     20.51      0  02:12       0.000     0.000
  YS02001652              0.01     53.95      0  02:12       0.000     0.000
  YS02001655              0.01     46.47      0  02:12       0.000     0.000
  YS02001658              0.01    508.58      0  02:12       0.001     0.000
  YS02001748              0.01    424.86      0  02:12       0.000     0.000
  YS02001751              0.01    280.50      0  02:12       0.000     0.000
  YS02001754              0.01    101.67      0  02:12       0.000     0.000
  YS02001762              0.01      6.19      0  02:12       0.000     0.000
  YS02001765              0.01      3.89      0  02:12       0.000     0.000
  YS02001767              0.01    179.19      0  02:11       0.000     0.000
  YS02001770              0.01     14.76      0  02:12       0.000     0.000
  YS02001779              0.06    379.77      0  02:11       0.017     0.000
  YS02001890              0.10    156.00      0  02:13       0.030     0.000
  YS02001907              0.23   1289.59      0  02:14       0.602     0.000
  YS02001918              0.01    238.63      0  02:11       0.003     0.000
  YS02001920              0.01     53.22      0  02:11       0.000     0.000
  YS02001923              0.01    433.25      0  02:11       0.003     0.000
  YS02001926              0.01    625.11      0  02:11       0.001     0.000
  YS02001929              0.01    225.43      0  02:11       0.000     0.000
  
  
  **********************
  Storage Volume Summary
  **********************
  
  ------------------------------------------------------------------------------------------------
                         Average    Avg   Evap  Exfil     Maximum    Max    Time of Max    Maximum
                          Volume   Pcnt   Pcnt   Pcnt      Volume   Pcnt     Occurrence    Outflow
  Storage Unit           1000 m³   Full   Loss   Loss     1000 m³   Full    days hr:min        LPS
  ------------------------------------------------------------------------------------------------
  CC-storage               2.484   38.7    0.0    0.0       4.082   63.7       0  02:34    1783.53
  JK-storage               0.147   50.6    0.0    0.0       0.212   72.9       0  02:25    2300.00
  
  
  ***********************
  Outfall Loading Summary
  ***********************
  
  -----------------------------------------------------------
                         Flow       Avg       Max       Total
                         Freq      Flow      Flow      Volume
  Outfall Node           Pcnt       LPS       LPS    10^6 ltr
  -----------------------------------------------------------
  CC-1                  19.14    683.00    683.00       3.245
  CC-2                   9.63    683.00    683.00       1.633
  JK-1                   6.16   1000.00   1000.00       1.222
  JK-2                   4.46   1000.00   1000.00       1.030
  WSC                   99.96    227.20    555.30       4.805
  -----------------------------------------------------------
  System                27.87   3593.20   3908.59      11.936
  
  
  ********************
  Link Flow Summary
  ********************
  
  -----------------------------------------------------------------------------
                                 Maximum  Time of Max   Maximum    Max/    Max/
                                  |Flow|   Occurrence   |Veloc|    Full    Full
  Link                 Type          LPS  days hr:min     m/sec    Flow   Depth
  -----------------------------------------------------------------------------
  1                    CONDUIT    555.30     0  02:40      2.83    0.19    0.30
  WS02003060WS02003069 CONDUIT    553.67     0  02:37      1.64    0.22    0.34
  WS02003066WSF200     CONDUIT    537.09     0  02:38      2.85    0.09    0.22
  WS02003067WS02003066 CONDUIT    537.04     0  02:38      1.21    0.17    0.42
  WS02003069WS02003072 CONDUIT    553.65     0  02:38      1.37    0.27    0.39
  WS02003072WS02003073 CONDUIT    553.58     0  02:39      1.44    1.20    0.37
  WS02004401WS02004402 CONDUIT    541.54     0  02:34      0.98    0.65    0.89
  WS02004402WS02004403 CONDUIT    540.12     0  02:34      0.97    0.78    0.91
  WS02004403WS02004404 CONDUIT    560.25     0  02:30      0.92    0.40    0.96
  WS02004404WS02004405 CONDUIT    601.88     0  02:33      1.08    5.90    0.98
  WS02004405WS02004406 CONDUIT    544.46     0  02:36      0.99    1.07    0.96
  WS02004406WS02004407 CONDUIT    540.14     0  02:34      1.04    0.24    0.63
  WS02004407WS02004409 CONDUIT    539.05     0  02:34      1.49    0.19    0.48
  WS02004409WS02004410 CONDUIT    538.31     0  02:34      0.98    0.70    0.67
  WS02004410WS02004411 CONDUIT    537.78     0  02:35      0.94    0.73    0.69
  WS02004411WS02004412 CONDUIT    537.43     0  02:37      0.92    0.76    0.69
  WS02004412WS02004413 CONDUIT    537.36     0  02:35      0.82    0.36    0.78
  WS02004413WS02003067 CONDUIT    537.00     0  02:37      1.11    0.23    0.59
  WS02006109WS02006110 CONDUIT    560.75     0  02:23      1.12    1.08    1.00
  WS02006110WS02006113 CONDUIT    567.47     0  02:37      1.37    0.52    0.79
  WS02006111WS02006112 CONDUIT    543.20     0  02:58      1.81    0.26    0.67
  WS02006112WS02006115 CONDUIT    551.79     0  03:06      0.78    0.33    0.88
  WS02006113WS02006111 CONDUIT    562.50     0  02:46      2.47    0.67    0.46
  WS02006115WS02006116 CONDUIT    538.51     0  02:27      0.97    0.69    0.78
  WS02006116WS02004401 CONDUIT    539.34     0  02:34      0.98    0.74    0.87
  WS02006228WS02006109 CONDUIT    557.80     0  02:23      1.11    2.44    1.00
  WS02006229WS02006228 CONDUIT    556.86     0  02:23      1.14    1.84    1.00
  WS02006230WS02006229 CONDUIT    555.83     0  02:23      1.44   12.37    1.00
  WS02006231WS02006230 CONDUIT    577.29     0  02:55      1.56    8.76    1.00
  WS02006232WS02006231 CONDUIT    572.73     0  02:55      1.50    1.20    1.00
  WS02006234WS02006232 CONDUIT    571.88     0  02:55      1.49    1.16    1.00
  WS02006235WS02006234 CONDUIT    566.90     0  02:55      1.47    5.98    1.00
  WS02006238WS02006235 CONDUIT    427.04     0  02:40      1.45    0.95    1.00
  WS02006239WS02006238 CONDUIT    426.32     0  02:40      1.11    1.36    1.00
  WS02006240WS02006239 CONDUIT    424.17     0  02:40      1.24    1.33    1.00
  WS02006242WS02006240 CONDUIT    421.17     0  03:17      1.13    1.67    1.00
  WS02006243WS02006242 CONDUIT    421.01     0  03:17      1.40    0.90    1.00
  WS02006245WS02006243 CONDUIT    421.03     0  03:17      1.45    1.25    1.00
  WS02006247WS02006245 CONDUIT    420.50     0  02:40      1.43    3.33    1.00
  WS02006248WS02006247 CONDUIT    421.75     0  02:40      1.44    0.92    1.00
  WS02006249WS02006248 CONDUIT    423.26     0  02:40      1.36    2.32    1.00
  WS02006251WS02006249 CONDUIT    459.02     0  00:00      1.99    1.32    1.00
  WS02006252WS02006251 CONDUIT    408.08     0  02:15     24.61    1.50    1.00
  WS02006256WS02006235 CONDUIT    288.91     0  00:00      4.23    3.06    1.00
  WSF200WS02003060     CONDUIT    537.41     0  02:38      2.06    0.12    0.28
  YS02001580YS02001583 CONDUIT    125.92     0  02:08      0.71    0.49    1.00
  YS02001583YS02001586 CONDUIT    168.61     0  02:07      0.72    0.26    1.00
  YS02001586YS02001590 CONDUIT    317.88     0  02:19      1.26    0.56    1.00
  YS02001590YS02001593 CONDUIT    318.08     0  02:20      1.12    2.00    1.00
  YS02001593YS02001596 CONDUIT    318.06     0  02:14      1.74    0.50    1.00
  YS02001596YS02001600 CONDUIT    318.01     0  02:19      1.23    0.62    1.00
  YS02001600YS02001601 CONDUIT    318.12     0  02:24      1.13    0.55    1.00
  YS02001601YS02001602 CONDUIT    525.23     0  02:07      1.86    1.90    1.00
  YS02001602YS02001605 CONDUIT    524.99     0  02:07      1.86   11.11    1.00
  YS02001605YS02001607 CONDUIT    525.70     0  02:07      1.86    2.88    1.00
  YS02001607YS02001610 CONDUIT    530.10     0  02:07      0.67    0.50    1.00
  YS02001610YS02001613 CONDUIT    532.22     0  02:07      0.68    0.61    1.00
  YS02001613YS02001616 CONDUIT    536.14     0  02:07      0.69    0.46    1.00
  YS02001616YS02001619 CONDUIT    509.56     0  02:07      0.67    0.88    1.00
  YS02001619YS02001622 CONDUIT    940.79     0  02:07      1.20    1.39    1.00
  YS02001622YS02001625 CONDUIT    948.28     0  02:07      1.21    0.51    1.00
  YS02001625YS02001629 CONDUIT    949.80     0  02:07      1.21    0.45    1.00
  YS02001629YS02163301 CONDUIT    929.93     0  02:09      1.18    1.15    1.00
  YS02001633YS02163601 CONDUIT   1391.19     0  02:10      1.77    1.46    1.00
  YS02001641YS02001644 CONDUIT   1391.24     0  02:10      1.77    4.50    1.00
  YS02001644YS02001647 CONDUIT   1827.31     0  02:10      2.33    1.07    1.00
  YS02001647YS02001649 CONDUIT   1848.24     0  02:10      2.36    0.98    1.00
  YS02001649YS02001757 CONDUIT   2070.55     0  02:10      2.64    1.26    1.00
  YS02001652YS02001649 CONDUIT    810.42     0  02:13      1.03    0.40    1.00
  YS02001655YS02001652 CONDUIT    809.97     0  02:13      1.32    0.39    1.00
  YS02001658YS02001655 CONDUIT    809.79     0  02:13      1.94    0.34    1.00
  YS02001661YS02001658 CONDUIT    809.68     0  02:13      2.38    0.32    1.00
  YS02001664YS02001661 CONDUIT    810.94     0  02:13      2.40    0.25    0.81
  YS02001745YS02001748 CONDUIT    657.35     0  02:12      2.27    0.25    0.93
  YS02001748YS02001751 CONDUIT    556.15     0  02:13      1.74    0.28    1.00
  YS02001751YS02001754 CONDUIT    556.26     0  02:13      1.46    0.27    1.00
  YS02001754YS02001757 CONDUIT    555.91     0  02:13      0.71    0.22    1.00
  YS02001757CaochengTiaoxuchi CONDUIT   3493.91     0  02:13      4.45    1.51    1.00
  YS02001759YS02001757 CONDUIT   1380.96     0  02:12      1.76    0.98    1.00
  YS02001762YS02001759 CONDUIT    798.91     0  02:12      1.02    0.92    1.00
  YS02001765YS02001762 CONDUIT    798.75     0  02:12      1.02    0.75    1.00
  YS02001767YS02001765 CONDUIT    798.40     0  02:12      1.02    1.00    1.00
  YS02001770YS02001767 CONDUIT    798.06     0  02:12      1.02    3.16    1.00
  YS02001774YS02001770 CONDUIT    408.62     0  02:11      0.52    0.26    1.00
  YS02001779YS02001774 CONDUIT    410.15     0  02:11      0.52    0.21    1.00
  YS02001783YS02001784 CONDUIT   1159.77     0  02:12      2.31    1.60    1.00
  YS02001784YS02001785 CONDUIT   1160.80     0  02:12      2.31    2.70    1.00
  YS02001786YS02001788 CONDUIT   1160.74     0  02:11      2.48    2.24    0.89
  YS02001788YS02001790 CONDUIT   1174.18     0  02:12      2.72    0.87    0.84
  YS02001790YS02001791 CONDUIT   1282.34     0  02:12      3.42    1.40    0.70
  YS02001791YS02001793 CONDUIT   1239.99     0  02:14      6.73    0.53    0.44
  YS02001793JiankangQianchi CONDUIT   1257.11     0  02:15      2.49    0.10    0.64
  YS02001882YS02001884 CONDUIT     52.68     0  02:09      0.09    0.06    1.00
  YS02001884YS02001887 CONDUIT     72.55     0  02:09      0.09    0.10    1.00
  YS02001887YS02001890 CONDUIT    665.47     0  02:13      0.85    1.14    1.00
  YS02001890YS02001895 CONDUIT    516.41     0  02:16      0.66    0.24    1.00
  YS02001895YS02001898 CONDUIT    516.68     0  02:15      0.66    0.90    1.00
  YS02001898YS02001901 CONDUIT    516.63     0  02:15      0.66    0.33    1.00
  YS02001901YS02001904 CONDUIT    517.03     0  02:16      0.66    0.80    1.00
  YS02001904YS02001907 CONDUIT    516.37     0  02:16      0.66    0.18    1.00
  YS02001907YS02006553 CONDUIT    796.57     0  02:25      0.89    0.94    1.00
  YS02001910YS02001907 CONDUIT   1106.19     0  02:15      1.41    0.62    1.00
  YS02001915YS02001910 CONDUIT   1106.37     0  02:15      1.41    0.55    1.00
  YS02001918YS02001915 CONDUIT    468.05     0  02:10      0.60    0.26    1.00
  YS02001920YS02001918 CONDUIT    465.04     0  02:10      0.67    0.45    1.00
  YS02001923YS02001920 CONDUIT    469.01     0  02:10      0.70    0.21    1.00
  YS02001926YS02001923 CONDUIT    449.04     0  02:11      0.97    0.64    1.00
  YS02001929YS02001926 CONDUIT    404.89     0  02:12      1.15    0.19    1.00
  YS02006553YS02006556 CONDUIT    797.54     0  02:25      1.02    0.68    1.00
  YS02006556YS02006558 CONDUIT    798.37     0  02:26      1.02    0.63    1.00
  YS02006558YS02006561 CONDUIT   1173.77     0  02:10      4.15    2.59    1.00
  YS02006561YS02001783 CONDUIT   1159.79     0  02:12      2.31    0.60    1.00
  YS02163301YS02001633 CONDUIT    929.22     0  02:09      1.18    0.87    1.00
  YS02163601YS02164001 CONDUIT   1391.14     0  02:10      1.77    1.23    1.00
  YS02164001YS02001641 CONDUIT   1391.45     0  02:10      1.77    1.90    1.00
  CC-R1                PUMP       683.00     0  00:00              1.00
  CC-R2                PUMP       683.00     0  00:00              1.00
  CC-S1                PUMP       200.00     0  00:00              1.00
  CC-S2                PUMP       200.00     0  00:00              1.00
  JK-R1                PUMP      1000.00     0  00:00              1.00
  JK-R2                PUMP      1000.00     0  00:00              1.00
  JK-S                 PUMP       300.00     0  00:00              1.00
  
  
  ***************************
  Flow Classification Summary
  ***************************
  
  -------------------------------------------------------------------------------------
                      Adjusted    ---------- Fraction of Time in Flow Class ---------- 
                       /Actual         Up    Down  Sub   Sup   Up    Down  Norm  Inlet 
  Conduit               Length    Dry  Dry   Dry   Crit  Crit  Crit  Crit  Ltd   Ctrl  
  -------------------------------------------------------------------------------------
  1                       1.00   0.00  0.00  0.00  0.00  1.00  0.00  0.00  0.36  0.00
  WS02003060WS02003069    1.00   0.00  0.00  0.00  0.98  0.02  0.00  0.00  0.73  0.00
  WS02003066WSF200        1.00   0.12  0.00  0.00  0.00  0.87  0.00  0.00  0.80  0.00
  WS02003067WS02003066    1.00   0.10  0.02  0.00  0.88  0.00  0.00  0.00  0.00  0.00
  WS02003069WS02003072    1.00   0.00  0.00  0.00  0.99  0.01  0.00  0.00  0.78  0.00
  WS02003072WS02003073    1.00   0.00  0.00  0.00  0.00  0.00  0.00  1.00  0.00  0.00
  WS02004401WS02004402    1.00   0.02  0.00  0.00  0.98  0.00  0.00  0.00  0.00  0.00
  WS02004402WS02004403    1.00   0.02  0.00  0.00  0.97  0.00  0.00  0.00  0.00  0.00
  WS02004403WS02004404    1.00   0.00  0.03  0.00  0.97  0.00  0.00  0.00  0.00  0.00
  WS02004404WS02004405    1.00   0.00  0.00  0.00  1.00  0.00  0.00  0.00  0.01  0.00
  WS02004405WS02004406    1.00   0.00  0.00  0.00  1.00  0.00  0.00  0.00  0.00  0.00
  WS02004406WS02004407    1.00   0.00  0.05  0.00  0.95  0.00  0.00  0.00  0.00  0.00
  WS02004407WS02004409    1.00   0.05  0.00  0.00  0.94  0.01  0.00  0.00  0.95  0.00
  WS02004409WS02004410    1.00   0.05  0.00  0.00  0.95  0.00  0.00  0.00  0.03  0.00
  WS02004410WS02004411    1.00   0.05  0.00  0.00  0.95  0.00  0.00  0.00  0.01  0.00
  WS02004411WS02004412    1.00   0.05  0.00  0.00  0.95  0.00  0.00  0.00  0.00  0.00
  WS02004412WS02004413    1.00   0.05  0.00  0.00  0.94  0.00  0.00  0.00  0.01  0.00
  WS02004413WS02003067    1.00   0.06  0.04  0.00  0.00  0.00  0.90  0.00  0.00  0.00
  WS02006109WS02006110    1.00   0.00  0.01  0.00  0.98  0.00  0.01  0.00  0.00  0.00
  WS02006110WS02006113    1.00   0.01  0.01  0.00  0.98  0.00  0.00  0.00  0.00  0.00
  WS02006111WS02006112    1.00   0.02  0.00  0.00  0.98  0.00  0.00  0.00  0.98  0.00
  WS02006112WS02006115    1.00   0.02  0.00  0.00  0.97  0.00  0.00  0.00  0.00  0.00
  WS02006113WS02006111    1.00   0.02  0.00  0.00  0.00  0.98  0.00  0.00  0.12  0.00
  WS02006115WS02006116    1.00   0.02  0.00  0.00  0.97  0.00  0.00  0.01  0.00  0.00
  WS02006116WS02004401    1.00   0.02  0.00  0.00  0.98  0.00  0.00  0.00  0.00  0.00
  WS02006228WS02006109    1.00   0.00  0.00  0.00  1.00  0.00  0.00  0.00  0.00  0.00
  WS02006229WS02006228    1.00   0.00  0.00  0.00  0.99  0.00  0.00  0.01  0.00  0.00
  WS02006230WS02006229    1.00   0.00  0.00  0.00  0.99  0.00  0.00  0.01  0.01  0.00
  WS02006231WS02006230    1.00   0.00  0.00  0.00  0.22  0.00  0.78  0.00  0.00  0.00
  WS02006232WS02006231    1.00   0.00  0.00  0.00  0.98  0.00  0.02  0.00  0.00  0.00
  WS02006234WS02006232    1.00   0.00  0.00  0.00  1.00  0.00  0.00  0.00  0.10  0.00
  WS02006235WS02006234    1.00   0.00  0.00  0.00  0.85  0.00  0.15  0.00  0.00  0.00
  WS02006238WS02006235    1.00   0.00  0.00  0.00  1.00  0.00  0.00  0.00  0.00  0.00
  WS02006239WS02006238    1.00   0.00  0.00  0.00  1.00  0.00  0.00  0.00  0.24  0.00
  WS02006240WS02006239    1.00   0.00  0.00  0.00  0.66  0.00  0.00  0.34  0.05  0.00
  WS02006242WS02006240    1.00   0.00  0.00  0.00  0.98  0.00  0.02  0.00  0.00  0.00
  WS02006243WS02006242    1.00   0.00  0.00  0.00  0.98  0.00  0.00  0.01  0.53  0.00
  WS02006245WS02006243    1.00   0.00  0.00  0.00  0.73  0.00  0.00  0.27  0.02  0.00
  WS02006247WS02006245    1.00   0.00  0.00  0.00  0.97  0.00  0.00  0.03  0.00  0.00
  WS02006248WS02006247    1.00   0.00  0.00  0.00  0.98  0.00  0.00  0.02  0.32  0.00
  WS02006249WS02006248    1.00   0.00  0.00  0.00  0.47  0.00  0.53  0.00  0.00  0.00
  WS02006251WS02006249    1.00   0.00  0.00  0.00  0.99  0.01  0.00  0.00  0.55  0.00
  WS02006252WS02006251    1.00   0.00  0.59  0.00  0.07  0.00  0.33  0.00  0.00  0.00
  WS02006256WS02006235    1.00   0.00  0.00  0.00  0.99  0.01  0.00  0.00  0.00  0.00
  WSF200WS02003060        1.00   0.00  0.12  0.00  0.32  0.55  0.00  0.00  0.55  0.00
  YS02001580YS02001583    1.00   0.26  0.57  0.00  0.17  0.00  0.00  0.00  0.66  0.00
  YS02001583YS02001586    1.00   0.43  0.35  0.00  0.22  0.00  0.00  0.00  0.67  0.00
  YS02001586YS02001590    1.00   0.13  0.00  0.00  0.41  0.05  0.00  0.42  0.37  0.00
  YS02001590YS02001593    1.00   0.13  0.01  0.00  0.09  0.00  0.78  0.00  0.00  0.00
  YS02001593YS02001596    1.00   0.14  0.00  0.00  0.10  0.01  0.00  0.75  0.02  0.00
  YS02001596YS02001600    1.00   0.14  0.00  0.00  0.16  0.01  0.00  0.68  0.05  0.00
  YS02001600YS02001601    1.00   0.13  0.01  0.00  0.86  0.00  0.00  0.00  0.63  0.00
  YS02001601YS02001602    1.00   0.13  0.01  0.00  0.86  0.00  0.00  0.00  0.00  0.00
  YS02001602YS02001605    1.00   0.14  0.00  0.00  0.86  0.00  0.00  0.00  0.00  0.00
  YS02001605YS02001607    1.00   0.14  0.00  0.00  0.86  0.00  0.00  0.00  0.00  0.00
  YS02001607YS02001610    1.00   0.13  0.01  0.00  0.86  0.00  0.00  0.00  0.02  0.00
  YS02001610YS02001613    1.00   0.13  0.00  0.00  0.87  0.00  0.00  0.00  0.01  0.00
  YS02001613YS02001616    1.00   0.13  0.00  0.00  0.87  0.00  0.00  0.00  0.01  0.00
  YS02001616YS02001619    1.00   0.13  0.00  0.00  0.87  0.00  0.00  0.00  0.00  0.00
  YS02001619YS02001622    1.00   0.13  0.00  0.00  0.87  0.00  0.00  0.00  0.29  0.00
  YS02001622YS02001625    1.00   0.13  0.00  0.00  0.87  0.00  0.00  0.00  0.06  0.00
  YS02001625YS02001629    1.00   0.13  0.06  0.00  0.12  0.00  0.69  0.00  0.00  0.00
  YS02001629YS02163301    1.00   0.17  0.01  0.00  0.82  0.00  0.00  0.00  0.00  0.00
  YS02001633YS02163601    1.00   0.00  0.01  0.00  0.99  0.00  0.00  0.00  0.15  0.00
  YS02001641YS02001644    1.00   0.00  0.01  0.00  0.99  0.00  0.00  0.00  0.00  0.00
  YS02001644YS02001647    1.00   0.00  0.19  0.00  0.81  0.00  0.00  0.00  0.00  0.00
  YS02001647YS02001649    1.00   0.00  0.19  0.00  0.53  0.28  0.00  0.00  0.57  0.00
  YS02001649YS02001757    1.00   0.00  0.00  0.00  0.87  0.13  0.00  0.00  0.47  0.00
  YS02001652YS02001649    1.00   0.00  0.00  0.00  0.95  0.05  0.00  0.00  0.77  0.00
  YS02001655YS02001652    1.00   0.00  0.00  0.00  0.15  0.01  0.00  0.84  0.06  0.00
  YS02001658YS02001655    1.00   0.00  0.15  0.00  0.62  0.23  0.00  0.00  0.73  0.00
  YS02001661YS02001658    1.00   0.15  0.00  0.00  0.46  0.39  0.00  0.00  0.73  0.00
  YS02001664YS02001661    1.00   0.13  0.00  0.00  0.78  0.10  0.00  0.00  0.86  0.00
  YS02001745YS02001748    1.00   0.00  0.00  0.00  0.05  0.01  0.00  0.94  0.04  0.00
  YS02001748YS02001751    1.00   0.00  0.00  0.00  0.81  0.19  0.00  0.00  0.79  0.00
  YS02001751YS02001754    1.00   0.00  0.00  0.00  0.13  0.01  0.00  0.86  0.05  0.00
  YS02001754YS02001757    1.00   0.00  0.00  0.00  1.00  0.00  0.00  0.00  0.85  0.00
  YS02001757CaochengTiaoxuchi    1.00   0.00  0.00  0.00  0.97  0.03  0.00  0.00  0.64  0.00
  YS02001759YS02001757    1.00   0.00  0.00  0.00  1.00  0.00  0.00  0.00  0.53  0.00
  YS02001762YS02001759    1.00   0.00  0.00  0.00  1.00  0.00  0.00  0.00  0.07  0.00
  YS02001765YS02001762    1.00   0.00  0.00  0.00  1.00  0.00  0.00  0.00  0.70  0.00
  YS02001767YS02001765    1.00   0.00  0.00  0.00  1.00  0.00  0.00  0.00  0.01  0.00
  YS02001770YS02001767    1.00   0.00  0.00  0.00  1.00  0.00  0.00  0.00  0.00  0.00
  YS02001774YS02001770    1.00   0.00  0.14  0.00  0.69  0.00  0.17  0.00  0.04  0.00
  YS02001779YS02001774    1.00   0.00  0.00  0.00  1.00  0.00  0.00  0.00  0.80  0.00
  YS02001783YS02001784    1.00   0.00  0.20  0.00  0.80  0.00  0.00  0.00  0.56  0.00
  YS02001784YS02001785    1.00   0.00  0.00  0.00  1.00  0.00  0.00  0.00  0.19  0.00
  YS02001786YS02001788    1.00   0.00  0.00  0.00  0.80  0.20  0.00  0.00  0.00  0.00
  YS02001788YS02001790    1.00   0.00  0.00  0.00  0.22  0.78  0.00  0.00  0.83  0.00
  YS02001790YS02001791    1.00   0.00  0.00  0.00  0.01  0.99  0.00  0.00  0.15  0.00
  YS02001791YS02001793    1.00   0.00  0.00  0.00  0.00  1.00  0.00  0.00  0.01  0.00
  YS02001793JiankangQianchi    1.00   0.00  0.00  0.00  0.99  0.01  0.00  0.00  0.97  0.00
  YS02001882YS02001884    1.00   0.16  0.01  0.00  0.83  0.00  0.00  0.00  0.00  0.00
  YS02001884YS02001887    1.00   0.06  0.05  0.00  0.89  0.00  0.00  0.00  0.00  0.00
  YS02001887YS02001890    1.00   0.00  0.00  0.00  0.97  0.00  0.03  0.00  0.00  0.00
  YS02001890YS02001895    1.00   0.00  0.18  0.00  0.82  0.00  0.00  0.00  0.00  0.00
  YS02001895YS02001898    1.00   0.18  0.00  0.00  0.80  0.00  0.02  0.00  0.00  0.00
  YS02001898YS02001901    1.00   0.18  0.00  0.00  0.82  0.00  0.00  0.00  0.01  0.00
  YS02001901YS02001904    1.00   0.18  0.00  0.00  0.82  0.00  0.00  0.00  0.00  0.00
  YS02001904YS02001907    1.00   0.00  0.17  0.00  0.82  0.00  0.00  0.00  0.00  0.00
  YS02001907YS02006553    1.00   0.00  0.02  0.00  0.98  0.00  0.00  0.00  0.00  0.00
  YS02001910YS02001907    1.00   0.00  0.00  0.00  0.97  0.00  0.00  0.03  0.12  0.00
  YS02001915YS02001910    1.00   0.00  0.00  0.00  0.96  0.04  0.00  0.00  0.18  0.00
  YS02001918YS02001915    1.00   0.00  0.01  0.00  0.98  0.02  0.00  0.00  0.78  0.00
  YS02001920YS02001918    1.00   0.00  0.01  0.00  0.99  0.00  0.00  0.00  0.00  0.00
  YS02001923YS02001920    1.00   0.00  0.00  0.00  1.00  0.00  0.00  0.00  0.94  0.00
  YS02001926YS02001923    1.00   0.00  0.07  0.00  0.04  0.00  0.88  0.00  0.00  0.00
  YS02001929YS02001926    1.00   0.00  0.13  0.00  0.87  0.00  0.00  0.00  0.84  0.00
  YS02006553YS02006556    1.00   0.01  0.00  0.00  0.99  0.00  0.00  0.00  0.03  0.00
  YS02006556YS02006558    1.00   0.00  0.00  0.00  1.00  0.00  0.00  0.00  0.00  0.00
  YS02006558YS02006561    1.00   0.20  0.00  0.00  0.04  0.76  0.00  0.00  0.19  0.00
  YS02006561YS02001783    1.00   0.20  0.00  0.00  0.07  0.74  0.00  0.00  0.70  0.00
  YS02163301YS02001633    1.00   0.00  0.16  0.00  0.84  0.00  0.00  0.00  0.00  0.00
  YS02163601YS02164001    1.00   0.00  0.08  0.00  0.92  0.00  0.00  0.00  0.00  0.00
  YS02164001YS02001641    1.00   0.01  0.07  0.00  0.92  0.00  0.00  0.00  0.06  0.00
  
  
  *************************
  Conduit Surcharge Summary
  *************************
  
  ----------------------------------------------------------------------------
                                                           Hours        Hours 
                         --------- Hours Full --------   Above Full   Capacity
  Conduit                Both Ends  Upstream  Dnstream   Normal Flow   Limited
  ----------------------------------------------------------------------------
  WS02003072WS02003073        0.01      0.01      0.01      0.87         0.01
  WS02004403WS02004404        0.01      0.01      0.01      0.01         0.01
  WS02004404WS02004405        0.01      0.01      0.01      3.18         0.01
  WS02004405WS02004406        0.01      0.01      0.01      0.39         0.01
  WS02006109WS02006110        0.45      0.45      1.65      0.53         0.01
  WS02006110WS02006113        0.01      0.01      1.64      0.01         0.01
  WS02006111WS02006112        0.01      0.01      1.84      0.01         0.01
  WS02006112WS02006115        0.01      0.01      0.55      0.01         0.01
  WS02006228WS02006109        1.62      1.65      1.62      1.97         1.62
  WS02006229WS02006228        1.61      1.64      1.61      1.78         1.61
  WS02006230WS02006229        1.70      1.76      1.70      4.07         1.70
  WS02006231WS02006230        0.46      0.46      0.58      3.51         0.01
  WS02006232WS02006231        0.55      0.55      1.65      0.59         0.01
  WS02006234WS02006232        1.57      1.57      1.65      0.58         0.58
  WS02006235WS02006234        0.79      0.79      1.60      3.36         0.01
  WS02006238WS02006235        1.61      1.61      1.65      0.01         0.01
  WS02006239WS02006238        1.62      1.63      1.63      1.70         1.48
  WS02006240WS02006239        1.59      1.60      1.59      1.70         1.42
  WS02006242WS02006240        1.60      1.60      1.65      1.82         0.01
  WS02006243WS02006242        1.60      1.60      1.61      0.01         0.03
  WS02006245WS02006243        1.59      1.59      1.59      1.21         1.15
  WS02006247WS02006245        1.59      1.59      1.59      3.14         1.58
  WS02006248WS02006247        1.58      1.58      1.59      0.01         0.03
  WS02006249WS02006248        1.58      1.58      1.58      3.09         0.01
  WS02006251WS02006249        1.58      1.58      1.58      1.75         1.52
  WS02006252WS02006251        1.79      1.79      1.80      1.79         0.01
  WS02006256WS02006235        3.37      3.41      6.03      0.91         0.01
  YS02001580YS02001583        0.41      0.41      0.45      0.01         0.01
  YS02001583YS02001586        0.41      0.41      0.52      0.01         0.01
  YS02001586YS02001590        0.53      0.53      0.58      0.01         0.01
  YS02001590YS02001593        0.58      0.58      0.60      0.62         0.01
  YS02001593YS02001596        0.60      0.60      0.68      0.01         0.01
  YS02001596YS02001600        0.72      0.72      0.80      0.01         0.01
  YS02001600YS02001601        0.86      0.86      1.14      0.01         0.01
  YS02001601YS02001602        1.03      1.03      1.18      0.82         0.01
  YS02001602YS02001605        0.97      0.97      1.03      2.02         0.01
  YS02001605YS02001607        0.93      0.97      0.93      1.11         0.93
  YS02001607YS02001610        0.55      0.55      0.57      0.01         0.01
  YS02001610YS02001613        0.54      0.54      0.57      0.01         0.01
  YS02001613YS02001616        0.51      0.51      0.54      0.01         0.01
  YS02001616YS02001619        0.50      0.50      0.51      0.01         0.01
  YS02001619YS02001622        0.49      0.50      0.49      0.61         0.47
  YS02001622YS02001625        0.49      0.49      0.65      0.01         0.01
  YS02001625YS02001629        0.45      0.45      0.65      0.01         0.01
  YS02001629YS02163301        0.64      0.64      0.64      0.20         0.19
  YS02001633YS02163601        0.66      0.66      0.68      0.32         0.32
  YS02001641YS02001644        0.56      0.59      0.56      1.22         0.55
  YS02001644YS02001647        0.38      0.38      0.56      0.04         0.01
  YS02001647YS02001649        0.38      0.38      0.47      0.01         0.01
  YS02001649YS02001757        0.46      0.47      0.51      0.18         0.13
  YS02001652YS02001649        0.34      0.34      0.47      0.01         0.01
  YS02001655YS02001652        0.21      0.21      0.32      0.01         0.01
  YS02001658YS02001655        0.10      0.10      0.21      0.01         0.01
  YS02001661YS02001658        0.01      0.01      0.10      0.01         0.01
  YS02001664YS02001661        0.01      0.01      0.02      0.01         0.01
  YS02001745YS02001748        0.01      0.01      0.02      0.01         0.01
  YS02001748YS02001751        0.08      0.08      0.14      0.01         0.01
  YS02001751YS02001754        0.14      0.14      0.24      0.01         0.01
  YS02001754YS02001757        0.27      0.27      0.51      0.01         0.01
  YS02001757CaochengTiaoxuchi        0.46      0.51      1.60      0.28         0.20
  YS02001759YS02001757        0.42      0.42      0.51      0.01         0.02
  YS02001762YS02001759        0.40      0.40      0.42      0.01         0.02
  YS02001765YS02001762        0.36      0.36      0.40      0.01         0.01
  YS02001767YS02001765        0.34      0.34      0.36      0.01         0.03
  YS02001770YS02001767        0.34      0.34      0.34      0.39         0.26
  YS02001774YS02001770        0.32      0.32      0.38      0.01         0.01
  YS02001779YS02001774        0.25      0.25      0.38      0.01         0.01
  YS02001783YS02001784        0.37      0.40      0.37      0.52         0.37
  YS02001784YS02001785        0.28      0.37      0.28      0.70         0.28
  YS02001786YS02001788        0.01      0.28      0.01      0.61         0.01
  YS02001790YS02001791        0.01      0.01      0.01      0.36         0.01
  YS02001793JiankangQianchi        0.01      0.01      7.42      0.01         0.01
  YS02001882YS02001884        0.35      0.35      0.36      0.01         0.01
  YS02001884YS02001887        0.38      0.38      0.39      0.01         0.01
  YS02001887YS02001890        0.40      0.40      0.41      0.05         0.01
  YS02001890YS02001895        0.34      0.34      0.42      0.01         0.01
  YS02001895YS02001898        0.33      0.33      0.34      0.01         0.01
  YS02001898YS02001901        0.34      0.34      0.38      0.01         0.01
  YS02001901YS02001904        0.37      0.37      0.38      0.01         0.01
  YS02001904YS02001907        0.37      0.37      0.59      0.01         0.01
  YS02001907YS02006553        0.71      0.71      0.77      0.01         0.01
  YS02001910YS02001907        0.42      0.42      0.57      0.01         0.01
  YS02001915YS02001910        0.35      0.35      0.42      0.01         0.01
  YS02001918YS02001915        0.27      0.27      0.35      0.01         0.01
  YS02001920YS02001918        0.27      0.27      0.29      0.01         0.01
  YS02001923YS02001920        0.23      0.23      0.29      0.01         0.01
  YS02001926YS02001923        0.01      0.01      0.03      0.01         0.01
  YS02001929YS02001926        0.01      0.01      0.03      0.01         0.01
  YS02006553YS02006556        0.50      0.50      0.59      0.01         0.01
  YS02006556YS02006558        0.54      0.54      0.60      0.01         0.01
  YS02006558YS02006561        0.31      0.49      0.31      0.67         0.31
  YS02006561YS02001783        0.24      0.24      0.40      0.01         0.01
  YS02163301YS02001633        0.64      0.64      0.68      0.01         0.01
  YS02163601YS02164001        0.60      0.60      0.68      0.06         0.01
  YS02164001YS02001641        0.59      0.60      0.59      0.60         0.48
  
  
  ***************
  Pumping Summary
  ***************
  
  ---------------------------------------------------------------------------------------------------------
                                                  Min       Avg       Max     Total     Power    % Time Off
                        Percent   Number of      Flow      Flow      Flow    Volume     Usage    Pump Curve
  Pump                 Utilized   Start-Ups       LPS       LPS       LPS  10^6 ltr     Kw-hr    Low   High
  ---------------------------------------------------------------------------------------------------------
  CC-R1                   16.50           5      0.00    683.00    683.00     3.246     58.96    0.0   24.2
  CC-R2                    8.31           4      0.00    683.00    683.00     1.635     29.95    0.0   24.8
  CC-S1                   39.45           8      0.00    200.00    200.00     2.272     13.54    0.0    0.0
  CC-S2                   23.48           5      0.00    200.00    200.00     1.353      8.00    0.0    0.0
  JK-R1                    4.24           8      0.00   1000.00   1000.00     1.222     12.95    0.0    0.0
  JK-R2                    3.57          11      0.00   1000.00   1000.00     1.029      9.36    0.0    0.0
  JK-S                    11.28          16      0.00    300.00    300.00     0.975     15.73    0.0    0.0
  

  Analysis begun on:  Tue Apr 15 14:52:13 2025
  Analysis ended on:  Tue Apr 15 14:52:14 2025
  Total elapsed time: 00:00:01