
  EPA STORM WATER MANAGEMENT MODEL - VERSION 5.2 (Build 5.2.4)
  PYSWMM TOOLKIT API - VERSION v1.0 (2023-11-27)
  ------------------------------------------------------------

  WARNING 04: minimum elevation drop used for Conduit WS02004404WS02004405
  WARNING 03: negative offset ignored for Link YS02001904YS02001907
  
  ****************
  Analysis Options
  ****************
  Flow Units ............... LPS
  Process Models:
    Rainfall/Runoff ........ YES
    RDII ................... NO
    Snowmelt ............... NO
    Groundwater ............ NO
    Flow Routing ........... YES
    Ponding Allowed ........ NO
    Water Quality .......... NO
  Infiltration Method ...... HORTON
  Flow Routing Method ...... DYNWAVE
  Surcharge Method ......... EXTRAN
  Starting Date ............ 08/28/2015 08:00:00
  Ending Date .............. 08/28/2015 16:00:00
  Antecedent Dry Days ...... 8.0
  Report Time Step ......... 00:01:00
  Wet Time Step ............ 00:01:00
  Dry Time Step ............ 00:01:00
  Routing Time Step ........ 30.00 sec
  Variable Time Step ....... YES
  Maximum Trials ........... 8
  Number of Threads ........ 4
  Head Tolerance ........... 0.001500 m
  
  
  **************************        Volume         Depth
  Runoff Quantity Continuity     hectare-m            mm
  **************************     ---------       -------
  Total Precipitation ......         2.707        81.619
  Evaporation Loss .........         0.000         0.000
  Infiltration Loss ........         0.105         3.172
  Surface Runoff ...........         2.570        77.468
  Final Storage ............         0.033         0.997
  Continuity Error (%) .....        -0.021
  
  
  **************************        Volume        Volume
  Flow Routing Continuity        hectare-m      10^6 ltr
  **************************     ---------     ---------
  Dry Weather Inflow .......         0.025         0.251
  Wet Weather Inflow .......         2.570        25.697
  Groundwater Inflow .......         0.000         0.000
  RDII Inflow ..............         0.000         0.000
  External Inflow ..........         0.083         0.834
  External Outflow .........         1.712        17.119
  Flooding Loss ............         0.932         9.317
  Evaporation Loss .........         0.000         0.000
  Exfiltration Loss ........         0.000         0.000
  Initial Stored Volume ....         0.243         2.431
  Final Stored Volume ......         0.280         2.805
  Continuity Error (%) .....        -0.098
  
  
  *************************
  Highest Continuity Errors
  *************************
  Node YS02001884 (4.82%)
  Node YS02001583 (-2.80%)
  
  
  ***************************
  Time-Step Critical Elements
  ***************************
  Link WS02006252WS02006251 (52.61%)
  Link WS02006238WS02006235 (12.61%)
  Link WS02004404WS02004405 (12.21%)
  Link WS02006235WS02006234 (7.16%)
  Link YS02001791YS02001793 (5.81%)
  
  
  ********************************
  Highest Flow Instability Indexes
  ********************************
  Link WS02006113WS02006111 (47)
  Link WS02006111WS02006112 (25)
  Link WS02004404WS02004405 (18)
  Link WS02004403WS02004404 (17)
  Link WS02006256WS02006235 (15)
  
  
  *********************************
  Most Frequent Nonconverging Nodes
  *********************************
  Node CC-1 (9.72%)
  Node CC-2 (9.72%)
  Node JK-1 (9.72%)
  Node JK-2 (9.72%)
  Node WSC (9.72%)
  
  
  *************************
  Routing Time Step Summary
  *************************
  Minimum Time Step           :     0.00 sec
  Average Time Step           :     1.84 sec
  Maximum Time Step           :     8.35 sec
  % of Time in Steady State   :     0.00
  Average Iterations per Step :     2.95
  % of Steps Not Converging   :     9.72
  Time Step Frequencies       :
     30.000 - 13.228 sec      :     0.00 %
     13.228 -  5.833 sec      :     9.13 %
      5.833 -  2.572 sec      :    15.85 %
      2.572 -  1.134 sec      :    17.08 %
      1.134 -  0.500 sec      :    57.94 %
  
  
  ***************************
  Subcatchment Runoff Summary
  ***************************
  
  ------------------------------------------------------------------------------------------------------------------------------
                            Total      Total      Total      Total     Imperv       Perv      Total       Total     Peak  Runoff
                           Precip      Runon       Evap      Infil     Runoff     Runoff     Runoff      Runoff   Runoff   Coeff
  Subcatchment                 mm         mm         mm         mm         mm         mm         mm    10^6 ltr      LPS
  ------------------------------------------------------------------------------------------------------------------------------
  sub60                     81.62       0.00       0.00       1.87      70.63       7.92      78.55        1.03   722.22   0.962
  sub61                     81.62       0.00       0.00       2.73      66.62      11.15      77.77        1.43  1005.30   0.953
  sub62                     81.62       0.00       0.00       1.25      73.81       5.28      79.09        2.17  1422.87   0.969
  sub63                     81.62       0.00       0.00       5.07      56.98      18.60      75.58        1.72  1159.39   0.926
  sub64                     81.62       0.00       0.00       2.56      68.17       9.69      77.86        1.87  1176.32   0.954
  sub65                     81.62       0.00       0.00       2.21      69.76       8.40      78.15        2.15  1316.04   0.958
  sub66                     81.62       0.00       0.00       6.34      56.87      17.33      74.20        3.46  1807.35   0.909
  sub67                     81.62       0.00       0.00       1.20      73.85       5.34      79.19        1.47  1069.49   0.970
  sub68                     81.62       0.00       0.00       2.26      69.01       9.17      78.18        2.15  1458.83   0.958
  sub69                     81.62       0.00       0.00       2.06      69.27      10.19      79.45        2.94  1748.21   0.973
  sub70                     81.62       0.00       0.00       6.92      53.70      20.83      74.53        2.15  1017.95   0.913
  sub71                     81.62       0.00       0.00       1.29      73.76       5.24      79.01        2.07  1266.79   0.968
  sub72                     81.62       0.00       0.00       1.15      74.50       4.57      79.07        1.09   617.94   0.969
  
  
  ******************
  Node Depth Summary
  ******************
  
  ---------------------------------------------------------------------------------
                                 Average  Maximum  Maximum  Time of Max    Reported
                                   Depth    Depth      HGL   Occurrence   Max Depth
  Node                 Type       Meters   Meters   Meters  days hr:min      Meters
  ---------------------------------------------------------------------------------
  WS02003060           JUNCTION     0.24     0.38     5.32     0  02:58        0.38
  WS02003066           JUNCTION     0.20     0.30     5.85     0  02:58        0.30
  WS02003067           JUNCTION     0.51     0.70     6.02     0  02:57        0.70
  WS02003069           JUNCTION     0.26     0.43     5.01     0  02:59        0.43
  WS02003072           JUNCTION     0.33     0.50     4.87     0  02:59        0.50
  WS02003073           JUNCTION     0.19     0.30     4.36     0  03:00        0.30
  WS02004401           JUNCTION     0.60     0.87     6.87     0  02:54        0.87
  WS02004402           JUNCTION     0.63     0.90     6.86     0  02:54        0.90
  WS02004403           JUNCTION     0.66     0.92     6.85     0  02:55        0.92
  WS02004404           JUNCTION     0.73     1.01     6.86     0  02:55        1.00
  WS02004405           JUNCTION     0.72     0.97     6.82     0  02:54        0.96
  WS02004406           JUNCTION     0.73     0.96     6.79     0  02:55        0.96
  WS02004407           JUNCTION     0.18     0.30     6.61     0  02:56        0.30
  WS02004409           JUNCTION     0.40     0.67     6.44     0  02:56        0.67
  WS02004410           JUNCTION     0.42     0.68     6.40     0  02:57        0.68
  WS02004411           JUNCTION     0.44     0.69     6.37     0  02:57        0.69
  WS02004412           JUNCTION     0.46     0.70     6.34     0  02:57        0.70
  WS02004413           JUNCTION     0.62     0.86     6.33     0  02:57        0.86
  WS02006109           JUNCTION     0.65     1.13     7.75     0  02:46        1.00
  WS02006110           JUNCTION     0.66     1.14     7.72     0  02:46        0.95
  WS02006111           JUNCTION     0.18     0.29     6.99     0  03:13        0.29
  WS02006112           JUNCTION     0.76     1.09     6.97     0  02:54        1.06
  WS02006113           JUNCTION     0.27     0.46     7.35     0  02:48        0.45
  WS02006115           JUNCTION     0.48     0.77     6.91     0  02:54        0.77
  WS02006116           JUNCTION     0.57     0.85     6.89     0  02:54        0.85
  WS02006228           JUNCTION     0.64     1.12     7.77     0  02:29        1.04
  WS02006229           JUNCTION     0.61     1.16     7.85     0  02:29        1.04
  WS02006230           JUNCTION     0.61     1.31     8.06     0  02:46        1.15
  WS02006231           JUNCTION     0.41     1.23     8.35     0  01:55        0.90
  WS02006232           JUNCTION     0.55     1.27     8.31     0  01:55        1.14
  WS02006234           JUNCTION     0.47     1.52     8.68     0  02:45        1.21
  WS02006235           JUNCTION     0.51     1.78     8.95     0  02:45        1.34
  WS02006238           JUNCTION     0.54     1.84     8.98     0  02:45        1.38
  WS02006239           JUNCTION     0.51     1.77     8.97     0  02:45        1.40
  WS02006240           JUNCTION     0.47     1.66     8.95     0  02:45        1.38
  WS02006242           JUNCTION     0.54     1.55     8.82     0  02:45        1.45
  WS02006243           JUNCTION     0.45     1.48     8.90     0  01:54        1.48
  WS02006245           JUNCTION     0.45     1.31     8.79     0  02:45        1.25
  WS02006247           JUNCTION     0.48     1.26     8.76     0  02:45        1.22
  WS02006248           JUNCTION     0.43     1.10     8.69     0  02:45        1.10
  WS02006249           JUNCTION     0.47     1.09     8.69     0  01:54        1.09
  WS02006251           JUNCTION     0.46     1.43     9.10     0  01:54        1.15
  WS02006252           JUNCTION     0.35     1.50     9.74     0  00:00        0.70
  WS02006256           JUNCTION     0.95     2.35     9.28     0  00:00        2.35
  WSF200               JUNCTION     0.17     0.29     5.52     0  02:58        0.29
  YS02001580           JUNCTION     0.10     1.05     9.59     0  02:06        0.77
  YS02001583           JUNCTION     0.13     1.14     9.64     0  02:06        0.82
  YS02001586           JUNCTION     0.22     1.13     9.30     0  02:06        1.13
  YS02001590           JUNCTION     0.32     1.39     9.25     0  02:06        1.37
  YS02001593           JUNCTION     0.25     1.46     9.32     0  02:04        1.46
  YS02001596           JUNCTION     0.35     1.80     9.22     0  02:04        1.80
  YS02001600           JUNCTION     0.42     1.87     9.00     0  02:04        1.87
  YS02001601           JUNCTION     0.62     2.06     8.90     0  02:04        2.06
  YS02001602           JUNCTION     0.53     1.87     8.77     0  02:04        1.87
  YS02001605           JUNCTION     0.49     1.78     8.68     0  02:04        1.78
  YS02001607           JUNCTION     0.47     1.68     8.53     0  02:07        1.68
  YS02001610           JUNCTION     0.52     1.68     8.48     0  02:07        1.68
  YS02001613           JUNCTION     0.47     1.67     8.51     0  02:43        1.67
  YS02001616           JUNCTION     0.40     1.61     8.52     0  02:12        1.61
  YS02001619           JUNCTION     0.38     1.61     8.54     0  02:18        1.61
  YS02001622           JUNCTION     0.36     1.58     8.49     0  02:25        1.58
  YS02001625           JUNCTION     0.64     1.78     8.38     0  02:12        1.78
  YS02001629           JUNCTION     0.49     1.85     8.40     0  02:14        1.85
  YS02001633           JUNCTION     0.57     2.03     8.49     0  02:25        2.03
  YS02001641           JUNCTION     0.55     1.96     8.40     0  02:18        1.96
  YS02001644           JUNCTION     0.54     1.92     8.35     0  02:17        1.92
  YS02001647           JUNCTION     0.32     1.77     8.38     0  02:23        1.77
  YS02001649           JUNCTION     0.37     2.02     8.41     0  02:23        2.01
  YS02001652           JUNCTION     0.25     1.87     8.47     0  02:24        1.86
  YS02001655           JUNCTION     0.19     1.69     8.54     0  02:24        1.68
  YS02001658           JUNCTION     0.14     1.47     8.61     0  02:24        1.45
  YS02001661           JUNCTION     0.17     1.28     8.68     0  02:24        1.27
  YS02001664           JUNCTION     0.07     0.78     8.70     0  02:24        0.76
  YS02001745           JUNCTION     0.08     0.94     8.46     0  02:24        0.94
  YS02001748           JUNCTION     0.13     1.36     8.44     0  02:24        1.36
  YS02001751           JUNCTION     0.16     1.53     8.41     0  02:23        1.52
  YS02001754           JUNCTION     0.22     1.77     8.38     0  02:24        1.77
  YS02001757           JUNCTION     0.39     2.09     8.35     0  02:24        2.09
  YS02001759           JUNCTION     0.32     2.09     8.45     0  02:24        2.09
  YS02001762           JUNCTION     0.31     2.05     8.45     0  02:23        2.05
  YS02001765           JUNCTION     0.29     2.00     8.45     0  02:23        1.99
  YS02001767           JUNCTION     0.29     1.96     8.45     0  02:23        1.96
  YS02001770           JUNCTION     0.30     1.95     8.44     0  02:18        1.95
  YS02001774           JUNCTION     0.37     2.03     8.46     0  02:18        2.03
  YS02001779           JUNCTION     0.20     1.68     8.37     0  02:18        1.68
  YS02001783           JUNCTION     0.26     1.25     7.39     0  02:23        1.24
  YS02001784           JUNCTION     0.27     1.13     7.20     0  02:30        1.13
  YS02001786           JUNCTION     0.23     0.88     6.91     0  02:25        0.88
  YS02001788           JUNCTION     0.17     0.63     6.60     0  02:22        0.62
  YS02001790           JUNCTION     0.20     0.73     6.37     0  02:22        0.72
  YS02001791           JUNCTION     0.12     0.44     5.91     0  02:17        0.43
  YS02001793           JUNCTION     0.06     0.31     5.14     0  02:20        0.30
  YS02001882           JUNCTION     0.33     1.71     8.43     0  02:12        1.68
  YS02001884           JUNCTION     0.42     1.79     8.41     0  02:12        1.78
  YS02001887           JUNCTION     0.50     1.86     8.40     0  02:24        1.86
  YS02001890           JUNCTION     0.53     1.81     8.32     0  02:12        1.81
  YS02001895           JUNCTION     0.30     1.61     8.36     0  02:12        1.57
  YS02001898           JUNCTION     0.30     1.64     8.37     0  02:12        1.57
  YS02001901           JUNCTION     0.42     1.74     8.35     0  02:12        1.68
  YS02001904           JUNCTION     0.40     1.67     8.30     0  02:12        1.65
  YS02001907           JUNCTION     0.73     1.96     8.25     0  02:12        1.96
  YS02001910           JUNCTION     0.52     2.01     8.52     0  02:25        2.01
  YS02001915           JUNCTION     0.33     2.00     8.72     0  02:25        2.00
  YS02001918           JUNCTION     0.18     1.81     8.88     0  02:14        1.68
  YS02001920           JUNCTION     0.26     1.99     9.00     0  02:14        1.75
  YS02001923           JUNCTION     0.13     1.82     9.08     0  02:14        1.53
  YS02001926           JUNCTION     0.17     1.67     9.11     0  02:14        1.36
  YS02001929           JUNCTION     0.10     1.50     9.20     0  02:14        1.14
  YS02006553           JUNCTION     0.73     1.99     8.28     0  02:21        1.99
  YS02006556           JUNCTION     0.70     1.98     8.29     0  02:21        1.98
  YS02006558           JUNCTION     0.74     2.04     8.30     0  02:21        2.04
  YS02006561           JUNCTION     0.16     0.92     7.58     0  02:23        0.91
  YS02163301           JUNCTION     0.52     1.94     8.45     0  02:21        1.94
  YS02163601           JUNCTION     0.61     2.04     8.44     0  02:22        2.04
  YS02164001           JUNCTION     0.54     1.96     8.42     0  02:30        1.96
  CC-1                 OUTFALL      0.00     0.00     0.00     0  00:00        0.00
  CC-2                 OUTFALL      0.00     0.00     0.00     0  00:00        0.00
  JK-1                 OUTFALL      0.00     0.00     0.00     0  00:00        0.00
  JK-2                 OUTFALL      0.00     0.00     0.00     0  00:00        0.00
  WSC                  OUTFALL      0.18     0.30     0.97     0  03:00        0.30
  CC-storage           STORAGE      0.90     1.78     7.28     0  02:49        1.78
  JK-storage           STORAGE      2.74     4.21     5.01     0  02:19        4.16
  
  
  *******************
  Node Inflow Summary
  *******************
  
  -------------------------------------------------------------------------------------------------
                                  Maximum  Maximum                  Lateral       Total        Flow
                                  Lateral    Total  Time of Max      Inflow      Inflow     Balance
                                   Inflow   Inflow   Occurrence      Volume      Volume       Error
  Node                 Type           LPS      LPS  days hr:min    10^6 ltr    10^6 ltr     Percent
  -------------------------------------------------------------------------------------------------
  WS02003060           JUNCTION     16.53   553.74     0  02:58       0.476        5.56       0.036
  WS02003066           JUNCTION      0.00   537.01     0  02:58           0        5.08       0.024
  WS02003067           JUNCTION      0.00   536.96     0  02:57           0        5.09       0.079
  WS02003069           JUNCTION      0.32   553.87     0  02:58     0.00922        5.56       0.062
  WS02003072           JUNCTION      0.00   553.43     0  02:59           0        5.56       0.113
  WS02003073           JUNCTION      1.82   554.97     0  02:59      0.0524        5.61       0.090
  WS02004401           JUNCTION      0.00   538.07     0  02:54           0        5.19       0.218
  WS02004402           JUNCTION      0.00   537.50     0  02:54           0        5.17       0.214
  WS02004403           JUNCTION      0.00   537.94     0  02:53           0        5.16       0.200
  WS02004404           JUNCTION      0.16   550.21     0  02:55     0.00467        5.16       0.192
  WS02004405           JUNCTION      0.04   601.35     0  02:55      0.0011        5.15       0.174
  WS02004406           JUNCTION      0.00   542.64     0  02:55           0        5.14       0.398
  WS02004407           JUNCTION      0.00   538.40     0  02:56           0        5.12       0.019
  WS02004409           JUNCTION      0.00   538.15     0  02:56           0        5.12       0.044
  WS02004410           JUNCTION      0.00   537.94     0  02:56           0        5.12       0.076
  WS02004411           JUNCTION      0.00   537.62     0  02:57           0        5.11       0.100
  WS02004412           JUNCTION      0.00   537.47     0  02:57           0        5.11       0.137
  WS02004413           JUNCTION      0.00   537.21     0  02:57           0         5.1       0.246
  WS02006109           JUNCTION      1.23   557.54     0  03:11      0.0354        5.25       0.250
  WS02006110           JUNCTION      0.00   558.84     0  03:11           0        5.24       0.203
  WS02006111           JUNCTION      0.00   561.81     0  02:48           0        5.22       0.037
  WS02006112           JUNCTION      0.00   544.10     0  03:13           0        5.22       0.365
  WS02006113           JUNCTION      0.00   566.09     0  02:39           0        5.23       0.076
  WS02006115           JUNCTION      0.00   550.31     0  03:11           0         5.2       0.155
  WS02006116           JUNCTION      0.00   538.45     0  02:48           0        5.19       0.136
  WS02006228           JUNCTION      0.00   553.82     0  03:11           0        5.22       0.135
  WS02006229           JUNCTION      0.00   553.48     0  02:46           0        5.23       0.137
  WS02006230           JUNCTION     10.28   587.15     0  03:15       0.296        5.23       0.096
  WS02006231           JUNCTION      0.00   573.33     0  02:38           0        4.94       0.110
  WS02006232           JUNCTION      0.00   572.64     0  02:38           0        4.96       0.276
  WS02006234           JUNCTION      0.00   568.01     0  02:38           0        4.95      -0.102
  WS02006235           JUNCTION      0.00   562.35     0  03:15           0        4.98       0.252
  WS02006238           JUNCTION      0.00   427.16     0  02:30           0        4.24      -0.159
  WS02006239           JUNCTION      0.00   425.09     0  02:30           0        4.23      -0.137
  WS02006240           JUNCTION      0.00   421.96     0  03:14           0        4.22      -0.012
  WS02006242           JUNCTION      0.00   421.19     0  03:14           0        4.22       0.074
  WS02006243           JUNCTION      0.00   420.18     0  03:14           0        4.22       0.037
  WS02006245           JUNCTION      0.00   419.20     0  02:45           0        4.23       0.357
  WS02006247           JUNCTION      0.00   419.41     0  02:30           0        4.23       0.002
  WS02006248           JUNCTION      0.00   420.81     0  02:30           0        4.24       0.030
  WS02006249           JUNCTION      0.00   482.58     0  01:50           0        4.38       0.366
  WS02006251           JUNCTION      0.08   408.61     0  01:54     0.00222        4.38      -0.026
  WS02006252           JUNCTION      0.00   400.00     0  00:00           0        4.37      -0.082
  WS02006256           JUNCTION      0.00   300.00     0  00:00           0        1.04      -0.692
  WSF200               JUNCTION      0.00   537.06     0  02:58           0        5.08       0.008
  YS02001580           JUNCTION      0.00    62.17     0  02:05           0     0.00418       0.310
  YS02001583           JUNCTION      0.00    99.31     0  02:05           0       0.016      -2.724
  YS02001586           JUNCTION   1017.95  1017.95     0  02:26        2.15        2.17       0.043
  YS02001590           JUNCTION      0.00   318.13     0  02:43           0        1.53      -0.034
  YS02001593           JUNCTION      0.00   318.04     0  02:43           0        1.53      -0.002
  YS02001596           JUNCTION      0.00   318.14     0  02:25           0        1.53      -0.012
  YS02001600           JUNCTION      0.00   317.98     0  02:29           0        1.53       0.017
  YS02001601           JUNCTION   1748.21  2065.58     0  02:25        2.94        4.48       0.018
  YS02001602           JUNCTION      0.00   493.85     0  02:05           0        2.58       0.019
  YS02001605           JUNCTION      0.00   493.81     0  02:05           0        2.44       0.026
  YS02001607           JUNCTION      0.00   493.68     0  02:05           0        2.44       0.083
  YS02001610           JUNCTION      0.00   951.12     0  02:28           0        2.88       0.082
  YS02001613           JUNCTION      0.00   614.84     0  02:28           0        2.29       0.068
  YS02001616           JUNCTION      0.00   614.68     0  02:28           0        2.29       0.017
  YS02001619           JUNCTION   1807.35  1807.35     0  02:26        3.46        5.31      -0.000
  YS02001622           JUNCTION      0.00  1053.90     0  02:27           0        4.84       0.003
  YS02001625           JUNCTION      0.00  1504.36     0  02:28           0        5.19       0.193
  YS02001629           JUNCTION      0.00   933.41     0  02:11           0        3.94       0.020
  YS02001633           JUNCTION   1316.24  1348.40     0  02:12        2.16        5.69       0.064
  YS02001641           JUNCTION      0.00  1344.39     0  02:12           0        5.28       0.053
  YS02001644           JUNCTION   1176.36  1963.53     0  02:25        1.87        7.16       0.050
  YS02001647           JUNCTION      0.00  1711.33     0  02:12           0        6.26       0.005
  YS02001649           JUNCTION      0.00  1960.56     0  02:13           0        7.97       0.002
  YS02001652           JUNCTION      0.00  1169.59     0  02:25           0        1.72      -0.055
  YS02001655           JUNCTION      0.15  1169.86     0  02:25     0.00443        1.72      -0.024
  YS02001658           JUNCTION      0.00  1169.67     0  02:25           0        1.72      -0.010
  YS02001661           JUNCTION      0.00  1171.24     0  02:25           0        1.72       0.016
  YS02001664           JUNCTION   1159.39  1159.39     0  02:25        1.72        1.72      -0.008
  YS02001745           JUNCTION    722.23   722.23     0  02:25        1.03        1.03       0.131
  YS02001748           JUNCTION      0.04   727.15     0  02:25      0.0013        1.03      -0.186
  YS02001751           JUNCTION      0.01   726.69     0  02:25    0.000317        1.04       0.049
  YS02001754           JUNCTION      0.26   727.00     0  02:25     0.00749        1.04      -0.124
  YS02001757           JUNCTION      0.00  3191.60     0  02:18           0        12.2       0.032
  YS02001759           JUNCTION   1005.34  1362.41     0  02:25        1.43        3.19      -0.005
  YS02001762           JUNCTION      0.00   726.40     0  02:19           0        1.76      -0.002
  YS02001765           JUNCTION      0.00   726.20     0  02:19           0        1.76       0.004
  YS02001767           JUNCTION      0.54   726.37     0  02:19      0.0154        1.76       0.010
  YS02001770           JUNCTION   1423.02  1423.02     0  02:25        2.17        2.22      -0.008
  YS02001774           JUNCTION      0.00   850.09     0  02:26           0       0.466       0.246
  YS02001779           JUNCTION      0.01   849.84     0  02:26    0.000144        0.42       0.002
  YS02001783           JUNCTION      0.00  1169.58     0  02:23           0        4.69       0.006
  YS02001784           JUNCTION      1.06  1171.25     0  02:24      0.0305        4.73       0.012
  YS02001786           JUNCTION      0.06  1171.17     0  02:24     0.00162        4.73       0.015
  YS02001788           JUNCTION      0.07  1171.68     0  02:24     0.00204        4.73       0.007
  YS02001790           JUNCTION      0.15  1177.67     0  02:23     0.00446        4.73       0.025
  YS02001791           JUNCTION      0.00  1293.99     0  02:22           0        4.73      -0.032
  YS02001793           JUNCTION      0.00  1256.81     0  02:19           0        4.73       0.004
  YS02001882           JUNCTION      0.00    34.56     0  02:10           0      0.0137       4.192
  YS02001884           JUNCTION      0.00    37.50     0  02:08           0      0.0501       5.068
  YS02001887           JUNCTION   1069.94  1071.64     0  02:25        1.49        1.52       0.301
  YS02001890           JUNCTION      0.00  1071.66     0  02:25           0        1.48       0.365
  YS02001895           JUNCTION      0.00   518.00     0  02:25           0        1.28       0.126
  YS02001898           JUNCTION      0.00   517.88     0  02:28           0        1.28       0.010
  YS02001901           JUNCTION      0.00   518.32     0  02:25           0        1.28       0.263
  YS02001904           JUNCTION      0.00   517.99     0  02:28           0        1.28       0.224
  YS02001907           JUNCTION      0.00  2710.32     0  02:25           0        4.57       0.403
  YS02001910           JUNCTION      0.00  1893.92     0  02:25           0        3.24       0.224
  YS02001915           JUNCTION   1266.81  1894.18     0  02:25        2.07        3.26       0.050
  YS02001918           JUNCTION      0.00   628.62     0  02:25           0         1.2       0.013
  YS02001920           JUNCTION      2.87   628.12     0  02:25      0.0827        1.19       0.070
  YS02001923           JUNCTION      0.04   624.41     0  02:25     0.00109         1.1      -0.007
  YS02001926           JUNCTION      0.05   623.75     0  02:25      0.0015        1.09       0.011
  YS02001929           JUNCTION    617.94   617.94     0  02:26        1.09        1.09      -0.034
  YS02006553           JUNCTION      0.00   805.95     0  02:40           0        2.67       0.443
  YS02006556           JUNCTION      0.00   806.31     0  02:40           0        2.68       0.301
  YS02006558           JUNCTION   1459.71  1459.71     0  02:25        2.18        4.78       0.076
  YS02006561           JUNCTION      0.00  1169.75     0  02:23           0        4.69      -0.002
  YS02163301           JUNCTION      0.00   932.67     0  02:11           0        3.94       0.041
  YS02163601           JUNCTION      0.11  1347.65     0  02:12     0.00317        5.28       0.096
  YS02164001           JUNCTION      0.00  1346.22     0  02:12           0        5.28       0.044
  CC-1                 OUTFALL       0.00   683.00     0  00:00           0        4.02       0.000
  CC-2                 OUTFALL       0.00   683.00     0  00:00           0        3.83       0.000
  JK-1                 OUTFALL       0.00  1000.00     0  00:00           0         2.2       0.000
  JK-2                 OUTFALL       0.00  1000.00     0  00:00           0        1.46       0.000
  WSC                  OUTFALL       0.00   554.69     0  03:00           0         5.6       0.000
  CC-storage           STORAGE       0.00  3190.08     0  02:18           0        14.4      -0.086
  JK-storage           STORAGE       0.00  1238.94     0  02:15           0        4.88       0.075
  
  
  **********************
  Node Surcharge Summary
  **********************
  
  Surcharging occurs when water rises above the top of the highest conduit.
  ---------------------------------------------------------------------
                                               Max. Height   Min. Depth
                                   Hours       Above Crown    Below Rim
  Node                 Type      Surcharged         Meters       Meters
  ---------------------------------------------------------------------
  WS02004404           JUNCTION        0.01          0.014        2.766
  WS02006109           JUNCTION        2.04          0.314        1.506
  WS02006110           JUNCTION        0.43          0.230        1.620
  WS02006112           JUNCTION        0.52          0.088        1.592
  WS02006228           JUNCTION        2.03          0.288        1.912
  WS02006229           JUNCTION        2.04          0.355        2.095
  WS02006230           JUNCTION        0.43          0.232        1.338
  WS02006231           JUNCTION        0.53          0.517        1.013
  WS02006232           JUNCTION        2.13          0.569        0.911
  WS02006234           JUNCTION        0.88          0.800        0.440
  WS02006235           JUNCTION        2.02          1.074        0.216
  WS02006238           JUNCTION        2.06          1.117        0.313
  WS02006239           JUNCTION        2.02          1.025        0.265
  WS02006240           JUNCTION        2.03          0.949        0.441
  WS02006242           JUNCTION        2.13          0.820        0.000
  WS02006243           JUNCTION        1.92          0.770        0.000
  WS02006245           JUNCTION        1.89          0.596        0.254
  WS02006247           JUNCTION        1.90          0.549        0.211
  WS02006248           JUNCTION        1.86          0.380        0.000
  WS02006249           JUNCTION        1.87          0.390        0.000
  WS02006251           JUNCTION        0.55          0.404        0.776
  WS02006252           JUNCTION        2.26          1.100        0.000
  WS02006256           JUNCTION        5.66          2.050        0.000
  YS02001580           JUNCTION        0.77          0.450        0.000
  YS02001583           JUNCTION        0.78          0.500        0.000
  YS02001586           JUNCTION        0.91          0.510        0.000
  YS02001590           JUNCTION        1.00          0.736        0.014
  YS02001593           JUNCTION        1.00          0.840        0.000
  YS02001596           JUNCTION        1.12          1.070        0.000
  YS02001600           JUNCTION        1.29          1.190        0.000
  YS02001601           JUNCTION        1.66          1.440        0.000
  YS02001602           JUNCTION        1.54          1.270        0.000
  YS02001605           JUNCTION        1.48          1.180        0.000
  YS02001607           JUNCTION        0.98          0.680        0.000
  YS02001610           JUNCTION        1.00          0.680        0.000
  YS02001613           JUNCTION        0.97          0.673        0.027
  YS02001616           JUNCTION        0.93          0.610        0.000
  YS02001619           JUNCTION        0.92          0.610        0.000
  YS02001622           JUNCTION        0.92          0.585        0.035
  YS02001625           JUNCTION        1.10          0.780        0.000
  YS02001629           JUNCTION        0.84          0.470        0.000
  YS02001633           JUNCTION        1.13          1.013        0.047
  YS02001641           JUNCTION        1.06          0.958        0.142
  YS02001644           JUNCTION        1.02          0.920        0.000
  YS02001647           JUNCTION        0.78          0.769        0.131
  YS02001649           JUNCTION        0.89          1.016        0.034
  YS02001652           JUNCTION        0.70          0.843        0.287
  YS02001655           JUNCTION        0.54          0.687        0.513
  YS02001658           JUNCTION        0.31          0.472        0.828
  YS02001661           JUNCTION        0.11          0.209        1.181
  YS02001748           JUNCTION        0.26          0.280        0.910
  YS02001751           JUNCTION        0.40          0.533        0.667
  YS02001754           JUNCTION        0.61          0.722        0.428
  YS02001757           JUNCTION        0.94          1.087        0.123
  YS02001759           JUNCTION        0.86          1.089        0.121
  YS02001762           JUNCTION        0.82          1.052        0.098
  YS02001765           JUNCTION        0.79          1.001        0.099
  YS02001767           JUNCTION        0.77          0.962        0.068
  YS02001770           JUNCTION        0.74          0.920        0.000
  YS02001774           JUNCTION        0.82          1.034        0.016
  YS02001779           JUNCTION        0.61          0.680        0.000
  YS02001783           JUNCTION        0.65          0.446        1.154
  YS02001784           JUNCTION        0.63          0.333        1.157
  YS02001786           JUNCTION        0.50          0.085        1.345
  YS02001882           JUNCTION        0.59          0.715        0.115
  YS02001884           JUNCTION        0.60          0.734        0.136
  YS02001887           JUNCTION        0.64          0.812        0.138
  YS02001890           JUNCTION        0.66          0.760        0.000
  YS02001895           JUNCTION        0.58          0.609        0.141
  YS02001898           JUNCTION        0.57          0.605        0.135
  YS02001901           JUNCTION        0.62          0.736        0.134
  YS02001904           JUNCTION        0.62          0.672        0.178
  YS02001907           JUNCTION        0.96          0.950        0.000
  YS02001910           JUNCTION        0.69          1.012        0.088
  YS02001915           JUNCTION        0.59          1.000        0.000
  YS02001918           JUNCTION        0.49          0.810        0.000
  YS02001920           JUNCTION        0.51          0.988        0.152
  YS02001923           JUNCTION        0.17          0.606        0.214
  YS02001926           JUNCTION        0.20          0.668        0.232
  YS02001929           JUNCTION        0.07          0.502        0.278
  YS02006553           JUNCTION        0.98          0.995        0.195
  YS02006556           JUNCTION        0.81          0.943        0.407
  YS02006558           JUNCTION        0.78          0.935        0.465
  YS02006561           JUNCTION        0.45          0.116        1.034
  YS02163301           JUNCTION        1.11          0.935        0.095
  YS02163601           JUNCTION        1.17          1.041        0.039
  YS02164001           JUNCTION        1.06          0.961        0.139
  
  
  *********************
  Node Flooding Summary
  *********************
  
  Flooding refers to all water that overflows a node, whether it ponds or not.
  --------------------------------------------------------------------------
                                                             Total   Maximum
                                 Maximum   Time of Max       Flood    Ponded
                        Hours       Rate    Occurrence      Volume     Depth
  Node                 Flooded       LPS   days hr:min    10^6 ltr    Meters
  --------------------------------------------------------------------------
  WS02006242              0.01      6.92      0  02:45       0.000     0.000
  WS02006243              0.01     11.29      0  01:54       0.000     0.000
  WS02006248              0.01     11.06      0  02:45       0.000     0.000
  WS02006249              0.53    104.58      0  01:55       0.128     0.000
  WS02006252              0.01    245.63      0  00:00       0.000     0.000
  WS02006256              0.97    293.19      0  00:00       0.313     0.000
  YS02001580              0.01     52.72      0  02:06       0.000     0.000
  YS02001583              0.01     36.18      0  02:06       0.000     0.000
  YS02001586              0.61    700.34      0  02:26       0.619     0.000
  YS02001593              0.01      0.08      0  02:04       0.000     0.000
  YS02001596              0.01      0.01      0  02:04       0.000     0.000
  YS02001600              0.01      0.30      0  02:06       0.000     0.000
  YS02001601              0.84   1667.59      0  02:25       1.897     0.000
  YS02001602              0.68     62.07      0  02:20       0.139     0.000
  YS02001605              0.01      0.18      0  02:43       0.000     0.000
  YS02001607              0.01      0.10      0  02:07       0.000     0.000
  YS02001610              0.60    950.85      0  02:28       1.021     0.000
  YS02001616              0.04      6.06      0  02:30       0.000     0.000
  YS02001619              0.09    151.56      0  02:26       0.027     0.000
  YS02001625              0.57   1503.99      0  02:28       1.646     0.000
  YS02001629              0.20    226.26      0  02:25       0.062     0.000
  YS02001644              0.28   1963.32      0  02:25       0.903     0.000
  YS02001770              0.06    230.33      0  02:25       0.027     0.000
  YS02001779              0.24    849.73      0  02:26       0.400     0.000
  YS02001890              0.23    554.50      0  02:25       0.195     0.000
  YS02001907              0.43   2708.51      0  02:25       1.939     0.000
  YS02001918              0.01     17.43      0  02:14       0.000     0.000
  
  
  **********************
  Storage Volume Summary
  **********************
  
  ------------------------------------------------------------------------------------------------
                         Average    Avg   Evap  Exfil     Maximum    Max    Time of Max    Maximum
                          Volume   Pcnt   Pcnt   Pcnt      Volume   Pcnt     Occurrence    Outflow
  Storage Unit           1000 m³   Full   Loss   Loss     1000 m³   Full    days hr:min        LPS
  ------------------------------------------------------------------------------------------------
  CC-storage               2.507   39.1    0.0    0.0       4.955   77.3       0  02:49    1783.53
  JK-storage               0.137   47.2    0.0    0.0       0.212   72.7       0  02:19    2300.00
  
  
  ***********************
  Outfall Loading Summary
  ***********************
  
  -----------------------------------------------------------
                         Flow       Avg       Max       Total
                         Freq      Flow      Flow      Volume
  Outfall Node           Pcnt       LPS       LPS    10^6 ltr
  -----------------------------------------------------------
  CC-1                  22.13    683.00    683.00       4.019
  CC-2                  23.84    683.00    683.00       3.833
  JK-1                  10.00   1000.00   1000.00       2.201
  JK-2                   5.81   1000.00   1000.00       1.464
  WSC                   99.96    255.70    554.69       5.603
  -----------------------------------------------------------
  System                32.35   3621.70   3907.18      17.119
  
  
  ********************
  Link Flow Summary
  ********************
  
  -----------------------------------------------------------------------------
                                 Maximum  Time of Max   Maximum    Max/    Max/
                                  |Flow|   Occurrence   |Veloc|    Full    Full
  Link                 Type          LPS  days hr:min     m/sec    Flow   Depth
  -----------------------------------------------------------------------------
  1                    CONDUIT    554.69     0  03:00      2.83    0.19    0.30
  WS02003060WS02003069 CONDUIT    553.55     0  02:58      1.64    0.22    0.34
  WS02003066WSF200     CONDUIT    537.06     0  02:58      2.85    0.09    0.22
  WS02003067WS02003066 CONDUIT    537.01     0  02:58      1.21    0.17    0.42
  WS02003069WS02003072 CONDUIT    553.43     0  02:59      1.37    0.27    0.39
  WS02003072WS02003073 CONDUIT    553.15     0  02:59      1.44    1.19    0.37
  WS02004401WS02004402 CONDUIT    537.50     0  02:54      0.98    0.65    0.89
  WS02004402WS02004403 CONDUIT    537.94     0  02:53      0.97    0.77    0.91
  WS02004403WS02004404 CONDUIT    550.04     0  02:55      0.92    0.40    0.96
  WS02004404WS02004405 CONDUIT    601.32     0  02:55      1.08    5.89    0.98
  WS02004405WS02004406 CONDUIT    542.64     0  02:55      0.99    1.07    0.96
  WS02004406WS02004407 CONDUIT    538.40     0  02:56      1.04    0.24    0.63
  WS02004407WS02004409 CONDUIT    538.15     0  02:56      1.48    0.19    0.48
  WS02004409WS02004410 CONDUIT    537.94     0  02:56      0.97    0.70    0.67
  WS02004410WS02004411 CONDUIT    537.62     0  02:57      0.94    0.73    0.69
  WS02004411WS02004412 CONDUIT    537.47     0  02:57      0.92    0.76    0.69
  WS02004412WS02004413 CONDUIT    537.21     0  02:57      0.82    0.36    0.78
  WS02004413WS02003067 CONDUIT    536.96     0  02:57      1.11    0.23    0.59
  WS02006109WS02006110 CONDUIT    558.84     0  03:11      1.11    1.07    1.00
  WS02006110WS02006113 CONDUIT    566.09     0  02:39      1.37    0.52    0.79
  WS02006111WS02006112 CONDUIT    544.10     0  03:13      1.81    0.26    0.67
  WS02006112WS02006115 CONDUIT    550.31     0  03:11      0.78    0.32    0.88
  WS02006113WS02006111 CONDUIT    561.81     0  02:48      2.47    0.67    0.46
  WS02006115WS02006116 CONDUIT    538.45     0  02:48      0.97    0.69    0.78
  WS02006116WS02004401 CONDUIT    538.07     0  02:54      0.98    0.74    0.86
  WS02006228WS02006109 CONDUIT    556.31     0  03:11      1.11    2.43    1.00
  WS02006229WS02006228 CONDUIT    553.82     0  03:11      1.14    1.83    1.00
  WS02006230WS02006229 CONDUIT    553.48     0  02:46      1.44   12.32    1.00
  WS02006231WS02006230 CONDUIT    576.87     0  03:15      1.57    8.75    1.00
  WS02006232WS02006231 CONDUIT    573.33     0  02:38      1.50    1.20    1.00
  WS02006234WS02006232 CONDUIT    572.64     0  02:38      1.49    1.16    1.00
  WS02006235WS02006234 CONDUIT    568.01     0  02:38      1.48    5.99    1.00
  WS02006238WS02006235 CONDUIT    428.88     0  02:30      1.45    0.96    1.00
  WS02006239WS02006238 CONDUIT    427.16     0  02:30      1.11    1.37    1.00
  WS02006240WS02006239 CONDUIT    425.09     0  02:30      1.24    1.34    1.00
  WS02006242WS02006240 CONDUIT    421.96     0  03:14      1.13    1.68    1.00
  WS02006243WS02006242 CONDUIT    421.19     0  03:14      1.40    0.90    1.00
  WS02006245WS02006243 CONDUIT    420.18     0  03:14      1.45    1.24    1.00
  WS02006247WS02006245 CONDUIT    419.20     0  02:45      1.43    3.32    1.00
  WS02006248WS02006247 CONDUIT    419.41     0  02:30      1.44    0.91    1.00
  WS02006249WS02006248 CONDUIT    420.81     0  02:30      1.38    2.31    1.00
  WS02006251WS02006249 CONDUIT    482.58     0  01:50      1.99    1.39    1.00
  WS02006252WS02006251 CONDUIT    408.54     0  01:54     24.61    1.50    1.00
  WS02006256WS02006235 CONDUIT    288.91     0  00:00      4.23    3.06    1.00
  WSF200WS02003060     CONDUIT    537.21     0  02:58      2.06    0.12    0.28
  YS02001580YS02001583 CONDUIT     62.17     0  02:05      0.47    0.24    1.00
  YS02001583YS02001586 CONDUIT     99.31     0  02:05      0.41    0.15    1.00
  YS02001586YS02001590 CONDUIT    318.13     0  02:43      1.24    0.56    1.00
  YS02001590YS02001593 CONDUIT    318.04     0  02:43      1.12    2.00    1.00
  YS02001593YS02001596 CONDUIT    318.14     0  02:25      1.75    0.50    1.00
  YS02001596YS02001600 CONDUIT    317.98     0  02:29      1.29    0.62    1.00
  YS02001600YS02001601 CONDUIT    317.95     0  02:20      1.12    0.55    1.00
  YS02001601YS02001602 CONDUIT    493.85     0  02:05      1.75    1.78    1.00
  YS02001602YS02001605 CONDUIT    493.81     0  02:05      1.75   10.45    1.00
  YS02001605YS02001607 CONDUIT    493.68     0  02:05      1.75    2.71    1.00
  YS02001607YS02001610 CONDUIT    493.03     0  02:05      0.63    0.47    1.00
  YS02001610YS02001613 CONDUIT    614.91     0  02:27      0.78    0.71    1.00
  YS02001613YS02001616 CONDUIT    614.84     0  02:28      0.78    0.53    1.00
  YS02001616YS02001619 CONDUIT    614.68     0  02:28      0.78    1.07    1.00
  YS02001619YS02001622 CONDUIT   1053.90     0  02:27      1.34    1.55    1.00
  YS02001622YS02001625 CONDUIT   1053.63     0  02:28      1.34    0.56    1.00
  YS02001625YS02001629 CONDUIT    933.41     0  02:11      1.19    0.44    1.00
  YS02001629YS02163301 CONDUIT    932.67     0  02:11      1.19    1.15    1.00
  YS02001633YS02163601 CONDUIT   1347.54     0  02:12      1.72    1.41    1.00
  YS02001641YS02001644 CONDUIT   1343.45     0  02:12      1.71    4.34    1.00
  YS02001644YS02001647 CONDUIT   1711.33     0  02:12      2.20    1.01    1.00
  YS02001647YS02001649 CONDUIT   1717.35     0  02:12      2.31    0.91    1.00
  YS02001649YS02001757 CONDUIT   1959.61     0  02:15      2.51    1.19    1.00
  YS02001652YS02001649 CONDUIT   1169.96     0  02:25      1.49    0.58    1.00
  YS02001655YS02001652 CONDUIT   1169.59     0  02:25      1.49    0.57    1.00
  YS02001658YS02001655 CONDUIT   1169.70     0  02:25      1.81    0.50    1.00
  YS02001661YS02001658 CONDUIT   1169.67     0  02:25      2.22    0.46    1.00
  YS02001664YS02001661 CONDUIT   1171.24     0  02:25      2.20    0.37    0.89
  YS02001745YS02001748 CONDUIT    727.11     0  02:25      2.07    0.28    0.97
  YS02001748YS02001751 CONDUIT    726.68     0  02:25      1.62    0.37    1.00
  YS02001751YS02001754 CONDUIT    726.74     0  02:25      1.37    0.35    1.00
  YS02001754YS02001757 CONDUIT    726.98     0  02:25      0.93    0.29    1.00
  YS02001757CaochengTiaoxuchi CONDUIT   3190.08     0  02:18      4.06    1.38    1.00
  YS02001759YS02001757 CONDUIT   1362.50     0  02:25      1.73    0.97    1.00
  YS02001762YS02001759 CONDUIT    726.84     0  02:19      0.93    0.84    1.00
  YS02001765YS02001762 CONDUIT    726.40     0  02:19      0.92    0.68    1.00
  YS02001767YS02001765 CONDUIT    726.20     0  02:19      0.92    0.91    1.00
  YS02001770YS02001767 CONDUIT    725.84     0  02:19      0.92    2.88    1.00
  YS02001774YS02001770 CONDUIT    850.09     0  02:26      1.08    0.54    1.00
  YS02001779YS02001774 CONDUIT    849.83     0  02:26      1.08    0.43    1.00
  YS02001783YS02001784 CONDUIT   1170.19     0  02:24      2.33    1.61    1.00
  YS02001784YS02001785 CONDUIT   1171.11     0  02:24      2.33    2.73    1.00
  YS02001786YS02001788 CONDUIT   1171.61     0  02:24      2.49    2.26    0.89
  YS02001788YS02001790 CONDUIT   1177.52     0  02:23      2.72    0.87    0.84
  YS02001790YS02001791 CONDUIT   1293.99     0  02:22      3.44    1.41    0.70
  YS02001791YS02001793 CONDUIT   1256.81     0  02:19      6.77    0.54    0.45
  YS02001793JiankangQianchi CONDUIT   1238.94     0  02:15      2.49    0.10    0.65
  YS02001882YS02001884 CONDUIT     34.56     0  02:10      0.15    0.04    1.00
  YS02001884YS02001887 CONDUIT     37.50     0  02:08      0.11    0.05    1.00
  YS02001887YS02001890 CONDUIT   1071.66     0  02:25      1.36    1.83    1.00
  YS02001890YS02001895 CONDUIT    518.00     0  02:25      0.66    0.24    1.00
  YS02001895YS02001898 CONDUIT    517.88     0  02:28      0.66    0.90    1.00
  YS02001898YS02001901 CONDUIT    518.32     0  02:25      0.66    0.33    1.00
  YS02001901YS02001904 CONDUIT    517.99     0  02:28      0.66    0.80    1.00
  YS02001904YS02001907 CONDUIT    519.56     0  02:27      0.66    0.18    1.00
  YS02001907YS02006553 CONDUIT    805.95     0  02:40      0.90    0.95    1.00
  YS02001910YS02001907 CONDUIT   1894.38     0  02:25      2.41    1.07    1.00
  YS02001915YS02001910 CONDUIT   1893.92     0  02:25      2.41    0.94    1.00
  YS02001918YS02001915 CONDUIT    629.29     0  02:25      0.80    0.35    1.00
  YS02001920YS02001918 CONDUIT    628.62     0  02:25      0.80    0.61    1.00
  YS02001923YS02001920 CONDUIT    625.25     0  02:25      0.80    0.28    1.00
  YS02001926YS02001923 CONDUIT    624.37     0  02:25      0.94    0.89    1.00
  YS02001929YS02001926 CONDUIT    623.70     0  02:25      1.06    0.30    1.00
  YS02006553YS02006556 CONDUIT    806.31     0  02:40      1.03    0.69    1.00
  YS02006556YS02006558 CONDUIT    807.84     0  02:40      1.03    0.64    1.00
  YS02006558YS02006561 CONDUIT   1169.75     0  02:23      4.14    2.59    1.00
  YS02006561YS02001783 CONDUIT   1169.58     0  02:23      2.33    0.61    1.00
  YS02163301YS02001633 CONDUIT    932.90     0  02:12      1.19    0.88    1.00
  YS02163601YS02164001 CONDUIT   1346.22     0  02:12      1.71    1.19    1.00
  YS02164001YS02001641 CONDUIT   1344.39     0  02:12      1.71    1.84    1.00
  CC-R1                PUMP       683.00     0  00:00              1.00
  CC-R2                PUMP       683.00     0  00:00              1.00
  CC-S1                PUMP       200.00     0  00:00              1.00
  CC-S2                PUMP       200.00     0  00:00              1.00
  JK-R1                PUMP      1000.00     0  00:00              1.00
  JK-R2                PUMP      1000.00     0  00:00              1.00
  JK-S                 PUMP       300.00     0  00:00              1.00
  
  
  ***************************
  Flow Classification Summary
  ***************************
  
  -------------------------------------------------------------------------------------
                      Adjusted    ---------- Fraction of Time in Flow Class ---------- 
                       /Actual         Up    Down  Sub   Sup   Up    Down  Norm  Inlet 
  Conduit               Length    Dry  Dry   Dry   Crit  Crit  Crit  Crit  Ltd   Ctrl  
  -------------------------------------------------------------------------------------
  1                       1.00   0.00  0.00  0.00  0.00  1.00  0.00  0.00  0.44  0.00
  WS02003060WS02003069    1.00   0.00  0.00  0.00  0.97  0.03  0.00  0.00  0.67  0.00
  WS02003066WSF200        1.00   0.12  0.00  0.00  0.00  0.87  0.00  0.00  0.79  0.00
  WS02003067WS02003066    1.00   0.10  0.02  0.00  0.88  0.00  0.00  0.00  0.00  0.00
  WS02003069WS02003072    1.00   0.00  0.00  0.00  0.99  0.01  0.00  0.00  0.71  0.00
  WS02003072WS02003073    1.00   0.00  0.00  0.00  0.00  0.00  0.00  1.00  0.00  0.00
  WS02004401WS02004402    1.00   0.02  0.00  0.00  0.98  0.00  0.00  0.00  0.00  0.00
  WS02004402WS02004403    1.00   0.02  0.00  0.00  0.97  0.00  0.00  0.00  0.00  0.00
  WS02004403WS02004404    1.00   0.00  0.03  0.00  0.97  0.00  0.00  0.00  0.00  0.00
  WS02004404WS02004405    1.00   0.00  0.00  0.00  1.00  0.00  0.00  0.00  0.01  0.00
  WS02004405WS02004406    1.00   0.00  0.00  0.00  1.00  0.00  0.00  0.00  0.00  0.00
  WS02004406WS02004407    1.00   0.00  0.05  0.00  0.95  0.00  0.00  0.00  0.00  0.00
  WS02004407WS02004409    1.00   0.05  0.00  0.00  0.94  0.01  0.00  0.00  0.95  0.00
  WS02004409WS02004410    1.00   0.05  0.00  0.00  0.95  0.00  0.00  0.00  0.03  0.00
  WS02004410WS02004411    1.00   0.05  0.00  0.00  0.95  0.00  0.00  0.00  0.01  0.00
  WS02004411WS02004412    1.00   0.05  0.00  0.00  0.95  0.00  0.00  0.00  0.00  0.00
  WS02004412WS02004413    1.00   0.05  0.00  0.00  0.94  0.00  0.00  0.00  0.01  0.00
  WS02004413WS02003067    1.00   0.06  0.04  0.00  0.00  0.00  0.90  0.00  0.00  0.00
  WS02006109WS02006110    1.00   0.00  0.01  0.00  0.98  0.00  0.01  0.00  0.00  0.00
  WS02006110WS02006113    1.00   0.01  0.01  0.00  0.98  0.00  0.00  0.00  0.00  0.00
  WS02006111WS02006112    1.00   0.02  0.00  0.00  0.98  0.00  0.00  0.00  0.98  0.00
  WS02006112WS02006115    1.00   0.02  0.00  0.00  0.97  0.00  0.00  0.00  0.00  0.00
  WS02006113WS02006111    1.00   0.02  0.00  0.00  0.00  0.98  0.00  0.00  0.14  0.00
  WS02006115WS02006116    1.00   0.02  0.00  0.00  0.97  0.00  0.00  0.01  0.00  0.00
  WS02006116WS02004401    1.00   0.02  0.00  0.00  0.98  0.00  0.00  0.00  0.00  0.00
  WS02006228WS02006109    1.00   0.00  0.00  0.00  1.00  0.00  0.00  0.00  0.00  0.00
  WS02006229WS02006228    1.00   0.00  0.00  0.00  0.99  0.00  0.00  0.01  0.00  0.00
  WS02006230WS02006229    1.00   0.00  0.00  0.00  0.99  0.00  0.00  0.01  0.00  0.00
  WS02006231WS02006230    1.00   0.00  0.00  0.00  0.29  0.00  0.70  0.00  0.00  0.00
  WS02006232WS02006231    1.00   0.00  0.00  0.00  0.99  0.00  0.01  0.00  0.00  0.00
  WS02006234WS02006232    1.00   0.00  0.00  0.00  1.00  0.00  0.00  0.00  0.15  0.00
  WS02006235WS02006234    1.00   0.00  0.00  0.00  0.78  0.00  0.22  0.00  0.00  0.00
  WS02006238WS02006235    1.00   0.00  0.00  0.00  1.00  0.00  0.00  0.00  0.00  0.00
  WS02006239WS02006238    1.00   0.00  0.00  0.00  1.00  0.00  0.00  0.00  0.29  0.00
  WS02006240WS02006239    1.00   0.00  0.00  0.00  0.62  0.00  0.00  0.37  0.02  0.00
  WS02006242WS02006240    1.00   0.00  0.00  0.00  0.98  0.00  0.02  0.00  0.00  0.00
  WS02006243WS02006242    1.00   0.00  0.00  0.00  0.98  0.00  0.00  0.02  0.48  0.00
  WS02006245WS02006243    1.00   0.00  0.00  0.00  0.74  0.00  0.00  0.26  0.01  0.00
  WS02006247WS02006245    1.00   0.00  0.00  0.00  0.98  0.00  0.00  0.02  0.00  0.00
  WS02006248WS02006247    1.00   0.00  0.00  0.00  0.99  0.00  0.00  0.01  0.26  0.00
  WS02006249WS02006248    1.00   0.00  0.00  0.00  0.53  0.00  0.47  0.00  0.00  0.00
  WS02006251WS02006249    1.00   0.00  0.00  0.00  0.99  0.01  0.00  0.00  0.48  0.00
  WS02006252WS02006251    1.00   0.00  0.52  0.00  0.07  0.00  0.41  0.00  0.01  0.00
  WS02006256WS02006235    1.00   0.00  0.00  0.00  1.00  0.00  0.00  0.00  0.00  0.00
  WSF200WS02003060        1.00   0.00  0.12  0.00  0.36  0.51  0.00  0.00  0.45  0.00
  YS02001580YS02001583    1.00   0.26  0.53  0.00  0.22  0.00  0.00  0.00  0.62  0.00
  YS02001583YS02001586    1.00   0.40  0.33  0.00  0.27  0.00  0.00  0.00  0.62  0.00
  YS02001586YS02001590    1.00   0.13  0.00  0.00  0.47  0.04  0.00  0.37  0.38  0.00
  YS02001590YS02001593    1.00   0.13  0.01  0.00  0.14  0.00  0.73  0.00  0.00  0.00
  YS02001593YS02001596    1.00   0.13  0.00  0.00  0.16  0.01  0.00  0.70  0.02  0.00
  YS02001596YS02001600    1.00   0.13  0.00  0.00  0.23  0.01  0.00  0.63  0.05  0.00
  YS02001600YS02001601    1.00   0.13  0.01  0.00  0.86  0.00  0.00  0.00  0.58  0.00
  YS02001601YS02001602    1.00   0.13  0.01  0.00  0.87  0.00  0.00  0.00  0.00  0.00
  YS02001602YS02001605    1.00   0.13  0.00  0.00  0.87  0.00  0.00  0.00  0.00  0.00
  YS02001605YS02001607    1.00   0.13  0.00  0.00  0.87  0.00  0.00  0.00  0.00  0.00
  YS02001607YS02001610    1.00   0.13  0.01  0.00  0.86  0.00  0.00  0.00  0.01  0.00
  YS02001610YS02001613    1.00   0.13  0.00  0.00  0.87  0.00  0.00  0.00  0.00  0.00
  YS02001613YS02001616    1.00   0.13  0.00  0.00  0.87  0.00  0.00  0.00  0.00  0.00
  YS02001616YS02001619    1.00   0.13  0.00  0.00  0.87  0.00  0.00  0.00  0.00  0.00
  YS02001619YS02001622    1.00   0.13  0.00  0.00  0.87  0.00  0.00  0.00  0.26  0.00
  YS02001622YS02001625    1.00   0.13  0.00  0.00  0.87  0.00  0.00  0.00  0.03  0.00
  YS02001625YS02001629    1.00   0.13  0.04  0.00  0.19  0.00  0.64  0.00  0.00  0.00
  YS02001629YS02163301    1.00   0.15  0.01  0.00  0.84  0.00  0.00  0.00  0.00  0.00
  YS02001633YS02163601    1.00   0.00  0.01  0.00  0.99  0.00  0.00  0.00  0.14  0.00
  YS02001641YS02001644    1.00   0.00  0.01  0.00  0.99  0.00  0.00  0.00  0.00  0.00
  YS02001644YS02001647    1.00   0.00  0.16  0.00  0.84  0.00  0.00  0.00  0.00  0.00
  YS02001647YS02001649    1.00   0.00  0.16  0.00  0.55  0.29  0.00  0.00  0.54  0.00
  YS02001649YS02001757    1.00   0.00  0.00  0.00  0.82  0.17  0.00  0.00  0.40  0.00
  YS02001652YS02001649    1.00   0.00  0.00  0.00  0.97  0.03  0.00  0.00  0.71  0.00
  YS02001655YS02001652    1.00   0.00  0.00  0.00  0.22  0.01  0.00  0.77  0.06  0.00
  YS02001658YS02001655    1.00   0.00  0.14  0.00  0.67  0.19  0.00  0.00  0.66  0.00
  YS02001661YS02001658    1.00   0.14  0.00  0.00  0.51  0.35  0.00  0.00  0.67  0.00
  YS02001664YS02001661    1.00   0.13  0.00  0.00  0.76  0.11  0.00  0.00  0.85  0.00
  YS02001745YS02001748    1.00   0.00  0.00  0.00  0.11  0.00  0.00  0.88  0.04  0.00
  YS02001748YS02001751    1.00   0.00  0.00  0.00  0.83  0.17  0.00  0.00  0.72  0.00
  YS02001751YS02001754    1.00   0.00  0.00  0.00  0.19  0.01  0.00  0.80  0.04  0.00
  YS02001754YS02001757    1.00   0.00  0.00  0.00  1.00  0.00  0.00  0.00  0.79  0.00
  YS02001757CaochengTiaoxuchi    1.00   0.00  0.00  0.00  0.93  0.07  0.00  0.00  0.52  0.00
  YS02001759YS02001757    1.00   0.00  0.00  0.00  0.99  0.01  0.00  0.00  0.50  0.00
  YS02001762YS02001759    1.00   0.00  0.00  0.00  1.00  0.00  0.00  0.00  0.05  0.00
  YS02001765YS02001762    1.00   0.00  0.00  0.00  1.00  0.00  0.00  0.00  0.63  0.00
  YS02001767YS02001765    1.00   0.00  0.00  0.00  1.00  0.00  0.00  0.00  0.01  0.00
  YS02001770YS02001767    1.00   0.00  0.00  0.00  1.00  0.00  0.00  0.00  0.00  0.00
  YS02001774YS02001770    1.00   0.00  0.13  0.00  0.71  0.00  0.16  0.00  0.02  0.00
  YS02001779YS02001774    1.00   0.00  0.00  0.00  1.00  0.00  0.00  0.00  0.73  0.00
  YS02001783YS02001784    1.00   0.00  0.17  0.00  0.83  0.00  0.00  0.00  0.54  0.00
  YS02001784YS02001785    1.00   0.00  0.00  0.00  1.00  0.00  0.00  0.00  0.16  0.00
  YS02001786YS02001788    1.00   0.00  0.00  0.00  0.78  0.22  0.00  0.00  0.00  0.00
  YS02001788YS02001790    1.00   0.00  0.00  0.00  0.21  0.79  0.00  0.00  0.78  0.00
  YS02001790YS02001791    1.00   0.00  0.00  0.00  0.01  0.99  0.00  0.00  0.16  0.00
  YS02001791YS02001793    1.00   0.00  0.00  0.00  0.00  1.00  0.00  0.00  0.01  0.00
  YS02001793JiankangQianchi    1.00   0.00  0.00  0.00  0.97  0.03  0.00  0.00  0.95  0.00
  YS02001882YS02001884    1.00   0.15  0.01  0.00  0.85  0.00  0.00  0.00  0.00  0.00
  YS02001884YS02001887    1.00   0.06  0.05  0.00  0.89  0.00  0.00  0.00  0.00  0.00
  YS02001887YS02001890    1.00   0.00  0.00  0.00  0.97  0.00  0.03  0.00  0.00  0.00
  YS02001890YS02001895    1.00   0.00  0.15  0.00  0.84  0.00  0.00  0.00  0.00  0.00
  YS02001895YS02001898    1.00   0.16  0.00  0.00  0.83  0.00  0.02  0.00  0.00  0.00
  YS02001898YS02001901    1.00   0.16  0.00  0.00  0.84  0.00  0.00  0.00  0.01  0.00
  YS02001901YS02001904    1.00   0.16  0.00  0.00  0.84  0.00  0.00  0.00  0.00  0.00
  YS02001904YS02001907    1.00   0.00  0.16  0.00  0.84  0.00  0.00  0.00  0.00  0.00
  YS02001907YS02006553    1.00   0.00  0.02  0.00  0.98  0.00  0.00  0.00  0.00  0.00
  YS02001910YS02001907    1.00   0.00  0.00  0.00  0.97  0.00  0.00  0.03  0.12  0.00
  YS02001915YS02001910    1.00   0.00  0.00  0.00  0.97  0.03  0.00  0.00  0.14  0.00
  YS02001918YS02001915    1.00   0.00  0.01  0.00  0.98  0.02  0.00  0.00  0.72  0.00
  YS02001920YS02001918    1.00   0.00  0.01  0.00  0.99  0.00  0.00  0.00  0.00  0.00
  YS02001923YS02001920    1.00   0.00  0.00  0.00  1.00  0.00  0.00  0.00  0.91  0.00
  YS02001926YS02001923    1.00   0.00  0.07  0.00  0.07  0.00  0.85  0.00  0.00  0.00
  YS02001929YS02001926    1.00   0.00  0.13  0.00  0.87  0.00  0.00  0.00  0.81  0.00
  YS02006553YS02006556    1.00   0.01  0.00  0.00  0.99  0.00  0.00  0.00  0.03  0.00
  YS02006556YS02006558    1.00   0.00  0.00  0.00  1.00  0.00  0.00  0.00  0.00  0.00
  YS02006558YS02006561    1.00   0.17  0.00  0.00  0.07  0.76  0.00  0.00  0.18  0.00
  YS02006561YS02001783    1.00   0.17  0.00  0.00  0.11  0.72  0.00  0.00  0.66  0.00
  YS02163301YS02001633    1.00   0.00  0.15  0.00  0.85  0.00  0.00  0.00  0.00  0.00
  YS02163601YS02164001    1.00   0.00  0.08  0.00  0.92  0.00  0.00  0.00  0.00  0.00
  YS02164001YS02001641    1.00   0.01  0.07  0.00  0.92  0.00  0.00  0.00  0.05  0.00
  
  
  *************************
  Conduit Surcharge Summary
  *************************
  
  ----------------------------------------------------------------------------
                                                           Hours        Hours 
                         --------- Hours Full --------   Above Full   Capacity
  Conduit                Both Ends  Upstream  Dnstream   Normal Flow   Limited
  ----------------------------------------------------------------------------
  WS02003072WS02003073        0.01      0.01      0.01      0.75         0.01
  WS02004403WS02004404        0.01      0.01      0.01      0.01         0.01
  WS02004404WS02004405        0.01      0.01      0.01      3.74         0.01
  WS02004405WS02004406        0.01      0.01      0.01      0.35         0.01
  WS02006109WS02006110        0.43      0.43      2.12      0.50         0.01
  WS02006110WS02006113        0.01      0.01      2.06      0.01         0.01
  WS02006111WS02006112        0.01      0.01      2.72      0.01         0.01
  WS02006112WS02006115        0.01      0.01      0.52      0.01         0.01
  WS02006228WS02006109        2.04      2.12      2.04      2.87         2.04
  WS02006229WS02006228        2.03      2.04      2.03      2.46         2.03
  WS02006230WS02006229        2.27      2.42      2.27      4.18         2.27
  WS02006231WS02006230        0.42      0.42      0.56      3.99         0.01
  WS02006232WS02006231        0.52      0.52      2.13      0.58         0.01
  WS02006234WS02006232        2.00      2.00      2.13      0.57         0.56
  WS02006235WS02006234        0.88      0.88      2.01      3.85         0.01
  WS02006238WS02006235        2.02      2.02      2.14      0.01         0.01
  WS02006239WS02006238        2.06      2.10      2.06      2.09         1.76
  WS02006240WS02006239        2.01      2.05      2.02      2.07         1.66
  WS02006242WS02006240        2.03      2.03      2.19      2.30         0.01
  WS02006243WS02006242        1.93      1.93      2.13      0.01         0.03
  WS02006245WS02006243        1.89      1.90      1.91      1.65         1.48
  WS02006247WS02006245        1.89      1.92      1.89      3.73         1.88
  WS02006248WS02006247        1.87      1.87      1.90      0.01         0.03
  WS02006249WS02006248        1.86      1.86      1.87      3.67         0.01
  WS02006251WS02006249        1.87      1.88      1.87      2.19         1.82
  WS02006252WS02006251        2.25      2.25      2.26      2.25         0.01
  WS02006256WS02006235        3.86      3.89      5.64      0.97         0.01
  YS02001580YS02001583        0.77      0.77      0.84      0.01         0.01
  YS02001583YS02001586        0.78      0.78      0.91      0.01         0.01
  YS02001586YS02001590        0.92      0.92      1.00      0.01         0.01
  YS02001590YS02001593        1.00      1.00      1.02      0.99         0.01
  YS02001593YS02001596        1.01      1.01      1.12      0.01         0.01
  YS02001596YS02001600        1.18      1.18      1.29      0.01         0.01
  YS02001600YS02001601        1.35      1.35      1.66      0.01         0.01
  YS02001601YS02001602        1.54      1.54      1.70      1.30         0.01
  YS02001602YS02001605        1.48      1.48      1.54      2.53         0.01
  YS02001605YS02001607        1.43      1.48      1.43      1.59         1.42
  YS02001607YS02001610        0.98      0.98      1.00      0.01         0.01
  YS02001610YS02001613        0.97      0.97      1.00      0.01         0.01
  YS02001613YS02001616        0.93      0.93      0.97      0.01         0.01
  YS02001616YS02001619        0.92      0.92      0.93      0.07         0.08
  YS02001619YS02001622        0.92      0.92      0.92      1.00         0.89
  YS02001622YS02001625        0.92      0.92      1.10      0.01         0.01
  YS02001625YS02001629        0.84      0.84      1.10      0.01         0.01
  YS02001629YS02163301        1.09      1.09      1.11      0.16         0.23
  YS02001633YS02163601        1.13      1.13      1.17      0.40         0.38
  YS02001641YS02001644        1.02      1.06      1.02      1.74         1.01
  YS02001644YS02001647        0.78      0.78      1.02      0.02         0.01
  YS02001647YS02001649        0.78      0.78      0.89      0.01         0.01
  YS02001649YS02001757        0.88      0.89      0.94      0.18         0.09
  YS02001652YS02001649        0.73      0.73      0.89      0.01         0.01
  YS02001655YS02001652        0.54      0.54      0.70      0.01         0.01
  YS02001658YS02001655        0.31      0.31      0.54      0.01         0.01
  YS02001661YS02001658        0.11      0.11      0.31      0.01         0.01
  YS02001664YS02001661        0.01      0.01      0.15      0.01         0.01
  YS02001745YS02001748        0.01      0.01      0.26      0.01         0.01
  YS02001748YS02001751        0.29      0.29      0.40      0.01         0.01
  YS02001751YS02001754        0.40      0.40      0.61      0.01         0.01
  YS02001754YS02001757        0.65      0.65      0.94      0.01         0.01
  YS02001757CaochengTiaoxuchi        0.90      0.94      1.77      0.48         0.37
  YS02001759YS02001757        0.86      0.86      0.94      0.01         0.01
  YS02001762YS02001759        0.82      0.82      0.86      0.01         0.01
  YS02001765YS02001762        0.79      0.79      0.82      0.01         0.01
  YS02001767YS02001765        0.77      0.77      0.79      0.01         0.02
  YS02001770YS02001767        0.77      0.77      0.77      0.67         0.51
  YS02001774YS02001770        0.74      0.74      0.82      0.01         0.01
  YS02001779YS02001774        0.61      0.61      0.82      0.01         0.01
  YS02001783YS02001784        0.63      0.65      0.63      0.85         0.63
  YS02001784YS02001785        0.50      0.63      0.50      1.16         0.50
  YS02001786YS02001788        0.01      0.50      0.01      1.01         0.01
  YS02001790YS02001791        0.01      0.01      0.01      0.61         0.01
  YS02001793JiankangQianchi        0.01      0.01      7.22      0.01         0.01
  YS02001882YS02001884        0.59      0.59      0.60      0.01         0.01
  YS02001884YS02001887        0.63      0.63      0.64      0.01         0.01
  YS02001887YS02001890        0.66      0.66      0.67      0.17         0.01
  YS02001890YS02001895        0.58      0.58      0.70      0.01         0.01
  YS02001895YS02001898        0.57      0.57      0.58      0.01         0.01
  YS02001898YS02001901        0.58      0.58      0.63      0.01         0.01
  YS02001901YS02001904        0.62      0.62      0.63      0.01         0.01
  YS02001904YS02001907        0.62      0.62      0.98      0.01         0.01
  YS02001907YS02006553        1.18      1.18      1.26      0.01         0.01
  YS02001910YS02001907        0.69      0.69      0.96      0.05         0.05
  YS02001915YS02001910        0.59      0.59      0.69      0.01         0.01
  YS02001918YS02001915        0.49      0.49      0.59      0.01         0.01
  YS02001920YS02001918        0.49      0.49      0.51      0.01         0.01
  YS02001923YS02001920        0.44      0.44      0.51      0.01         0.01
  YS02001926YS02001923        0.17      0.17      0.20      0.01         0.01
  YS02001929YS02001926        0.07      0.07      0.20      0.01         0.01
  YS02006553YS02006556        0.81      0.81      0.98      0.01         0.01
  YS02006556YS02006558        0.90      0.90      1.00      0.01         0.01
  YS02006558YS02006561        0.53      0.78      0.53      1.11         0.53
  YS02006561YS02001783        0.45      0.45      0.65      0.01         0.01
  YS02163301YS02001633        1.11      1.11      1.15      0.01         0.01
  YS02163601YS02164001        1.06      1.06      1.17      0.16         0.01
  YS02164001YS02001641        1.06      1.06      1.06      0.79         0.72
  
  
  ***************
  Pumping Summary
  ***************
  
  ---------------------------------------------------------------------------------------------------------
                                                  Min       Avg       Max     Total     Power    % Time Off
                        Percent   Number of      Flow      Flow      Flow    Volume     Usage    Pump Curve
  Pump                 Utilized   Start-Ups       LPS       LPS       LPS  10^6 ltr     Kw-hr    Low   High
  ---------------------------------------------------------------------------------------------------------
  CC-R1                   20.42           5      0.00    683.00    683.00     4.017     75.04    0.0   22.2
  CC-R2                   19.48           4      0.00    683.00    683.00     3.832     70.70    0.0   34.0
  CC-S1                   46.79           8      0.00    200.00    200.00     2.695     15.89    0.0    0.0
  CC-S2                   29.17           5      0.00    200.00    200.00     1.680      9.58    0.0    0.0
  JK-R1                    7.64          14      0.00   1000.00   1000.00     2.200     23.41    0.0    0.0
  JK-R2                    5.08          13      0.00   1000.00   1000.00     1.463     12.62    0.0    0.0
  JK-S                    12.06          13      0.00    300.00    300.00     1.042     16.19    0.0    0.0
  

  Analysis begun on:  Tue Apr 15 14:52:27 2025
  Analysis ended on:  Tue Apr 15 14:52:28 2025
  Total elapsed time: 00:00:01