
  EPA STORM WATER MANAGEMENT MODEL - VERSION 5.2 (Build 5.2.4)
  PYSWMM TOOLKIT API - VERSION v1.0 (2023-11-27)
  ------------------------------------------------------------

  WARNING 04: minimum elevation drop used for Conduit WS02004404WS02004405
  WARNING 03: negative offset ignored for Link YS02001904YS02001907
  
  ****************
  Analysis Options
  ****************
  Flow Units ............... LPS
  Process Models:
    Rainfall/Runoff ........ YES
    RDII ................... NO
    Snowmelt ............... NO
    Groundwater ............ NO
    Flow Routing ........... YES
    Ponding Allowed ........ NO
    Water Quality .......... NO
  Infiltration Method ...... HORTON
  Flow Routing Method ...... DYNWAVE
  Surcharge Method ......... EXTRAN
  Starting Date ............ 08/28/2015 08:00:00
  Ending Date .............. 08/28/2015 16:00:00
  Antecedent Dry Days ...... 8.0
  Report Time Step ......... 00:01:00
  Wet Time Step ............ 00:01:00
  Dry Time Step ............ 00:01:00
  Routing Time Step ........ 30.00 sec
  Variable Time Step ....... YES
  Maximum Trials ........... 8
  Number of Threads ........ 4
  Head Tolerance ........... 0.001500 m
  
  
  **************************        Volume         Depth
  Runoff Quantity Continuity     hectare-m            mm
  **************************     ---------       -------
  Total Precipitation ......         3.308        99.722
  Evaporation Loss .........         0.000         0.000
  Infiltration Loss ........         0.107         3.222
  Surface Runoff ...........         3.168        95.522
  Final Storage ............         0.033         0.998
  Continuity Error (%) .....        -0.020
  
  
  **************************        Volume        Volume
  Flow Routing Continuity        hectare-m      10^6 ltr
  **************************     ---------     ---------
  Dry Weather Inflow .......         0.025         0.251
  Wet Weather Inflow .......         3.168        31.684
  Groundwater Inflow .......         0.000         0.000
  RDII Inflow ..............         0.000         0.000
  External Inflow ..........         0.083         0.834
  External Outflow .........         1.888        18.881
  Flooding Loss ............         1.354        13.543
  Evaporation Loss .........         0.000         0.000
  Exfiltration Loss ........         0.000         0.000
  Initial Stored Volume ....         0.243         2.431
  Final Stored Volume ......         0.280         2.804
  Continuity Error (%) .....        -0.082
  
  
  *************************
  Highest Continuity Errors
  *************************
  Node YS02001884 (4.75%)
  Node YS02001583 (-2.47%)
  
  
  ***************************
  Time-Step Critical Elements
  ***************************
  Link WS02006252WS02006251 (51.02%)
  Link WS02006238WS02006235 (12.23%)
  Link WS02004404WS02004405 (11.95%)
  Link YS02001791YS02001793 (7.11%)
  Link WS02006235WS02006234 (5.75%)
  
  
  ********************************
  Highest Flow Instability Indexes
  ********************************
  Link WS02006113WS02006111 (48)
  Link WS02006111WS02006112 (27)
  Link WS02004404WS02004405 (19)
  Link WS02004403WS02004404 (17)
  Link WS02006238WS02006235 (17)
  
  
  *********************************
  Most Frequent Nonconverging Nodes
  *********************************
  Node CC-1 (9.43%)
  Node CC-2 (9.43%)
  Node JK-1 (9.43%)
  Node JK-2 (9.43%)
  Node WSC (9.43%)
  
  
  *************************
  Routing Time Step Summary
  *************************
  Minimum Time Step           :     0.00 sec
  Average Time Step           :     1.79 sec
  Maximum Time Step           :     6.43 sec
  % of Time in Steady State   :     0.00
  Average Iterations per Step :     2.97
  % of Steps Not Converging   :     9.43
  Time Step Frequencies       :
     30.000 - 13.228 sec      :     0.00 %
     13.228 -  5.833 sec      :     6.83 %
      5.833 -  2.572 sec      :    15.26 %
      2.572 -  1.134 sec      :    21.30 %
      1.134 -  0.500 sec      :    56.61 %
  
  
  ***************************
  Subcatchment Runoff Summary
  ***************************
  
  ------------------------------------------------------------------------------------------------------------------------------
                            Total      Total      Total      Total     Imperv       Perv      Total       Total     Peak  Runoff
                           Precip      Runon       Evap      Infil     Runoff     Runoff     Runoff      Runoff   Runoff   Coeff
  Subcatchment                 mm         mm         mm         mm         mm         mm         mm    10^6 ltr      LPS
  ------------------------------------------------------------------------------------------------------------------------------
  sub60                     99.72       0.00       0.00       1.90      86.56      10.07      96.63        1.27   840.75   0.969
  sub61                     99.72       0.00       0.00       2.76      81.65      14.19      95.84        1.76  1170.65   0.961
  sub62                     99.72       0.00       0.00       1.26      90.46       6.71      97.18        2.66  1670.89   0.974
  sub63                     99.72       0.00       0.00       5.14      69.84      23.78      93.62        2.13  1363.16   0.939
  sub64                     99.72       0.00       0.00       2.59      83.56      12.37      95.93        2.30  1393.10   0.962
  sub65                     99.72       0.00       0.00       2.24      85.51      10.72      96.23        2.65  1563.79   0.965
  sub66                     99.72       0.00       0.00       6.44      69.73      22.48      92.20        4.30  2197.80   0.925
  sub67                     99.72       0.00       0.00       1.21      90.51       6.77      97.28        1.81  1235.63   0.976
  sub68                     99.72       0.00       0.00       2.29      84.58      11.67      96.25        2.65  1707.81   0.965
  sub69                     99.72       0.00       0.00       2.09      84.65      12.87      97.52        3.61  2080.14   0.978
  sub70                     99.72       0.00       0.00       7.07      65.65      26.84      92.49        2.67  1245.89   0.927
  sub71                     99.72       0.00       0.00       1.30      90.42       6.68      97.10        2.54  1502.27   0.974
  sub72                     99.72       0.00       0.00       1.16      91.34       5.82      97.16        1.34   739.63   0.974
  
  
  ******************
  Node Depth Summary
  ******************
  
  ---------------------------------------------------------------------------------
                                 Average  Maximum  Maximum  Time of Max    Reported
                                   Depth    Depth      HGL   Occurrence   Max Depth
  Node                 Type       Meters   Meters   Meters  days hr:min      Meters
  ---------------------------------------------------------------------------------
  WS02003060           JUNCTION     0.24     0.38     5.32     0  02:40        0.38
  WS02003066           JUNCTION     0.20     0.30     5.85     0  02:40        0.30
  WS02003067           JUNCTION     0.51     0.70     6.02     0  02:40        0.70
  WS02003069           JUNCTION     0.27     0.43     5.02     0  02:41        0.43
  WS02003072           JUNCTION     0.33     0.50     4.87     0  02:41        0.50
  WS02003073           JUNCTION     0.19     0.30     4.36     0  02:42        0.30
  WS02004401           JUNCTION     0.60     0.88     6.88     0  02:38        0.88
  WS02004402           JUNCTION     0.64     0.90     6.86     0  02:41        0.90
  WS02004403           JUNCTION     0.66     0.92     6.85     0  02:35        0.92
  WS02004404           JUNCTION     0.74     1.04     6.89     0  02:36        1.04
  WS02004405           JUNCTION     0.72     0.97     6.82     0  02:38        0.96
  WS02004406           JUNCTION     0.73     0.96     6.79     0  02:38        0.96
  WS02004407           JUNCTION     0.18     0.30     6.61     0  02:38        0.30
  WS02004409           JUNCTION     0.40     0.67     6.44     0  02:38        0.67
  WS02004410           JUNCTION     0.43     0.68     6.40     0  02:39        0.68
  WS02004411           JUNCTION     0.45     0.69     6.37     0  02:39        0.69
  WS02004412           JUNCTION     0.47     0.70     6.34     0  02:39        0.70
  WS02004413           JUNCTION     0.63     0.86     6.33     0  02:40        0.86
  WS02006109           JUNCTION     0.66     1.19     7.80     0  02:58        1.16
  WS02006110           JUNCTION     0.66     1.56     8.15     0  03:03        1.56
  WS02006111           JUNCTION     0.18     0.29     6.99     0  03:08        0.29
  WS02006112           JUNCTION     0.76     1.09     6.98     0  03:03        1.07
  WS02006113           JUNCTION     0.28     0.46     7.35     0  03:04        0.45
  WS02006115           JUNCTION     0.49     0.77     6.91     0  02:39        0.77
  WS02006116           JUNCTION     0.57     0.86     6.90     0  02:39        0.86
  WS02006228           JUNCTION     0.65     1.27     7.92     0  02:58        1.12
  WS02006229           JUNCTION     0.62     1.32     8.01     0  02:58        1.15
  WS02006230           JUNCTION     0.62     1.56     8.31     0  02:58        1.14
  WS02006231           JUNCTION     0.43     1.30     8.43     0  02:30        0.91
  WS02006232           JUNCTION     0.56     2.02     9.06     0  02:04        1.13
  WS02006234           JUNCTION     0.48     1.96     9.12     0  02:04        1.17
  WS02006235           JUNCTION     0.52     2.00     9.16     0  02:04        1.27
  WS02006238           JUNCTION     0.55     2.07     9.21     0  02:04        1.34
  WS02006239           JUNCTION     0.52     1.94     9.15     0  02:04        1.38
  WS02006240           JUNCTION     0.48     1.76     9.06     0  02:04        1.38
  WS02006242           JUNCTION     0.55     1.55     8.82     0  02:04        1.45
  WS02006243           JUNCTION     0.46     1.38     8.80     0  02:23        1.38
  WS02006245           JUNCTION     0.46     1.41     8.89     0  02:23        1.41
  WS02006247           JUNCTION     0.49     1.24     8.74     0  02:23        1.24
  WS02006248           JUNCTION     0.45     1.10     8.69     0  02:04        1.10
  WS02006249           JUNCTION     0.48     1.09     8.69     0  02:04        1.09
  WS02006251           JUNCTION     0.48     1.43     9.10     0  02:44        1.18
  WS02006252           JUNCTION     0.36     1.50     9.74     0  00:00        0.73
  WS02006256           JUNCTION     0.99     2.35     9.28     0  00:00        2.35
  WSF200               JUNCTION     0.17     0.29     5.52     0  02:40        0.29
  YS02001580           JUNCTION     0.11     1.02     9.57     0  01:59        0.77
  YS02001583           JUNCTION     0.14     1.05     9.54     0  01:59        0.82
  YS02001586           JUNCTION     0.23     1.13     9.30     0  01:59        1.13
  YS02001590           JUNCTION     0.34     1.38     9.24     0  01:59        1.38
  YS02001593           JUNCTION     0.26     1.36     9.23     0  02:23        1.36
  YS02001596           JUNCTION     0.37     1.67     9.09     0  01:59        1.65
  YS02001600           JUNCTION     0.44     1.87     9.00     0  01:59        1.86
  YS02001601           JUNCTION     0.64     2.06     8.90     0  01:58        2.06
  YS02001602           JUNCTION     0.55     1.87     8.77     0  02:06        1.87
  YS02001605           JUNCTION     0.51     1.78     8.68     0  02:10        1.78
  YS02001607           JUNCTION     0.49     1.68     8.53     0  02:23        1.68
  YS02001610           JUNCTION     0.53     1.68     8.48     0  02:07        1.68
  YS02001613           JUNCTION     0.49     1.70     8.54     0  02:23        1.70
  YS02001616           JUNCTION     0.42     1.61     8.52     0  02:20        1.61
  YS02001619           JUNCTION     0.40     1.61     8.54     0  02:10        1.61
  YS02001622           JUNCTION     0.38     1.62     8.52     0  02:23        1.59
  YS02001625           JUNCTION     0.65     1.78     8.38     0  02:07        1.78
  YS02001629           JUNCTION     0.52     1.85     8.40     0  02:10        1.85
  YS02001633           JUNCTION     0.60     2.08     8.53     0  02:10        2.08
  YS02001641           JUNCTION     0.58     2.10     8.54     0  02:10        2.00
  YS02001644           JUNCTION     0.57     1.92     8.35     0  02:10        1.92
  YS02001647           JUNCTION     0.35     1.78     8.39     0  02:25        1.78
  YS02001649           JUNCTION     0.40     2.05     8.44     0  02:25        2.05
  YS02001652           JUNCTION     0.28     1.94     8.53     0  02:25        1.94
  YS02001655           JUNCTION     0.21     1.78     8.63     0  02:25        1.78
  YS02001658           JUNCTION     0.16     1.59     8.73     0  02:25        1.59
  YS02001661           JUNCTION     0.18     1.42     8.83     0  02:25        1.42
  YS02001664           JUNCTION     0.07     0.96     8.88     0  02:24        0.94
  YS02001745           JUNCTION     0.09     1.03     8.55     0  02:23        1.00
  YS02001748           JUNCTION     0.15     1.43     8.51     0  02:25        1.43
  YS02001751           JUNCTION     0.18     1.62     8.50     0  02:25        1.62
  YS02001754           JUNCTION     0.25     1.86     8.47     0  02:25        1.86
  YS02001757           JUNCTION     0.43     2.17     8.43     0  02:25        2.17
  YS02001759           JUNCTION     0.36     2.21     8.57     0  02:21        2.21
  YS02001762           JUNCTION     0.35     2.15     8.55     0  02:21        2.15
  YS02001765           JUNCTION     0.32     2.08     8.53     0  02:25        2.08
  YS02001767           JUNCTION     0.32     2.03     8.52     0  02:21        2.03
  YS02001770           JUNCTION     0.33     1.95     8.44     0  02:20        1.95
  YS02001774           JUNCTION     0.40     2.05     8.47     0  02:23        2.01
  YS02001779           JUNCTION     0.23     1.68     8.37     0  02:08        1.68
  YS02001783           JUNCTION     0.28     1.33     7.48     0  02:23        1.26
  YS02001784           JUNCTION     0.29     1.18     7.25     0  02:23        1.14
  YS02001786           JUNCTION     0.24     0.93     6.96     0  02:23        0.88
  YS02001788           JUNCTION     0.17     0.63     6.60     0  02:20        0.62
  YS02001790           JUNCTION     0.21     0.73     6.38     0  02:21        0.73
  YS02001791           JUNCTION     0.13     0.45     5.92     0  02:25        0.43
  YS02001793           JUNCTION     0.07     0.31     5.14     0  02:15        0.31
  YS02001882           JUNCTION     0.34     1.83     8.55     0  02:23        1.83
  YS02001884           JUNCTION     0.44     1.90     8.52     0  02:22        1.90
  YS02001887           JUNCTION     0.51     2.00     8.54     0  02:23        2.00
  YS02001890           JUNCTION     0.54     1.81     8.32     0  02:08        1.81
  YS02001895           JUNCTION     0.31     1.62     8.37     0  02:23        1.62
  YS02001898           JUNCTION     0.32     1.59     8.33     0  02:21        1.59
  YS02001901           JUNCTION     0.44     1.71     8.32     0  02:23        1.71
  YS02001904           JUNCTION     0.42     1.65     8.28     0  02:32        1.65
  YS02001907           JUNCTION     0.74     1.96     8.25     0  02:08        1.96
  YS02001910           JUNCTION     0.54     2.01     8.52     0  02:25        2.01
  YS02001915           JUNCTION     0.35     2.00     8.72     0  02:21        2.00
  YS02001918           JUNCTION     0.20     1.81     8.88     0  02:23        1.81
  YS02001920           JUNCTION     0.28     1.87     8.88     0  02:25        1.87
  YS02001923           JUNCTION     0.15     1.66     8.92     0  02:25        1.66
  YS02001926           JUNCTION     0.19     1.48     8.93     0  02:25        1.48
  YS02001929           JUNCTION     0.11     1.27     8.97     0  02:25        1.22
  YS02006553           JUNCTION     0.74     2.19     8.47     0  02:23        2.19
  YS02006556           JUNCTION     0.71     2.30     8.61     0  02:23        2.30
  YS02006558           JUNCTION     0.76     2.50     8.77     0  02:23        2.50
  YS02006561           JUNCTION     0.17     1.04     7.70     0  02:23        0.92
  YS02163301           JUNCTION     0.54     2.03     8.55     0  02:23        2.03
  YS02163601           JUNCTION     0.63     2.08     8.48     0  02:10        2.08
  YS02164001           JUNCTION     0.56     2.10     8.56     0  02:10        1.99
  CC-1                 OUTFALL      0.00     0.00     0.00     0  00:00        0.00
  CC-2                 OUTFALL      0.00     0.00     0.00     0  00:00        0.00
  JK-1                 OUTFALL      0.00     0.00     0.00     0  00:00        0.00
  JK-2                 OUTFALL      0.00     0.00     0.00     0  00:00        0.00
  WSC                  OUTFALL      0.19     0.30     0.97     0  02:43        0.30
  CC-storage           STORAGE      0.95     1.86     7.36     0  02:51        1.86
  JK-storage           STORAGE      2.83     4.24     5.04     0  02:20        4.20
  
  
  *******************
  Node Inflow Summary
  *******************
  
  -------------------------------------------------------------------------------------------------
                                  Maximum  Maximum                  Lateral       Total        Flow
                                  Lateral    Total  Time of Max      Inflow      Inflow     Balance
                                   Inflow   Inflow   Occurrence      Volume      Volume       Error
  Node                 Type           LPS      LPS  days hr:min    10^6 ltr    10^6 ltr     Percent
  -------------------------------------------------------------------------------------------------
  WS02003060           JUNCTION     16.53   555.60     0  02:40       0.476        5.91       0.032
  WS02003066           JUNCTION      0.00   538.92     0  02:40           0        5.44       0.023
  WS02003067           JUNCTION      0.00   538.91     0  02:40           0        5.44       0.073
  WS02003069           JUNCTION      0.32   555.76     0  02:41     0.00922        5.92       0.058
  WS02003072           JUNCTION      0.00   555.74     0  02:41           0        5.92       0.107
  WS02003073           JUNCTION      1.82   557.56     0  02:42      0.0524        5.96       0.083
  WS02004401           JUNCTION      0.00   541.45     0  02:39           0        5.53       0.179
  WS02004402           JUNCTION      0.00   541.87     0  02:39           0        5.52       0.182
  WS02004403           JUNCTION      0.00   541.39     0  02:40           0        5.51       0.178
  WS02004404           JUNCTION      0.16   559.38     0  02:35     0.00467        5.51       0.155
  WS02004405           JUNCTION      0.04   605.73     0  02:30      0.0011         5.5       0.130
  WS02004406           JUNCTION      0.00   549.35     0  02:38           0        5.49       0.372
  WS02004407           JUNCTION      0.00   541.48     0  02:38           0        5.47       0.015
  WS02004409           JUNCTION      0.00   540.67     0  02:38           0        5.47       0.039
  WS02004410           JUNCTION      0.00   539.86     0  02:38           0        5.47       0.072
  WS02004411           JUNCTION      0.00   539.47     0  02:39           0        5.47       0.094
  WS02004412           JUNCTION      0.00   539.07     0  02:39           0        5.46       0.127
  WS02004413           JUNCTION      0.00   539.08     0  02:39           0        5.45       0.235
  WS02006109           JUNCTION      1.23   564.67     0  02:05      0.0354        5.58       0.134
  WS02006110           JUNCTION      0.00   565.91     0  02:05           0        5.57       0.116
  WS02006111           JUNCTION      0.00   560.37     0  03:11           0        5.56       0.014
  WS02006112           JUNCTION      0.00   543.35     0  03:08           0        5.56       0.357
  WS02006113           JUNCTION      0.00   572.70     0  02:05           0        5.57       0.028
  WS02006115           JUNCTION      0.00   552.46     0  03:21           0        5.54       0.120
  WS02006116           JUNCTION      0.00   542.40     0  02:33           0        5.54       0.066
  WS02006228           JUNCTION      0.00   561.61     0  02:05           0        5.55       0.049
  WS02006229           JUNCTION      0.00   562.26     0  02:05           0        5.55       0.087
  WS02006230           JUNCTION     10.28   591.24     0  02:30       0.296        5.56       0.070
  WS02006231           JUNCTION      0.00   597.34     0  02:04           0        5.26      -0.033
  WS02006232           JUNCTION      0.00   594.39     0  02:04           0        5.26       0.128
  WS02006234           JUNCTION      0.00   583.41     0  02:04           0        5.26      -0.159
  WS02006235           JUNCTION      0.00   567.50     0  02:04           0         5.3       0.147
  WS02006238           JUNCTION      0.00   425.37     0  02:50           0        4.38      -0.184
  WS02006239           JUNCTION      0.00   424.31     0  02:50           0        4.36      -0.136
  WS02006240           JUNCTION      0.00   422.26     0  02:50           0        4.35      -0.039
  WS02006242           JUNCTION      0.00   422.35     0  02:50           0        4.34       0.023
  WS02006243           JUNCTION      0.00   421.66     0  02:50           0        4.33      -0.037
  WS02006245           JUNCTION      0.00   420.82     0  02:50           0        4.34       0.337
  WS02006247           JUNCTION      0.00   421.12     0  02:50           0        4.34       0.026
  WS02006248           JUNCTION      0.00   420.30     0  02:50           0        4.34       0.003
  WS02006249           JUNCTION      0.00   459.02     0  00:00           0        4.57       0.357
  WS02006251           JUNCTION      0.08   405.18     0  03:20     0.00222        4.57      -0.005
  WS02006252           JUNCTION      0.00   400.00     0  00:00           0        4.56      -0.082
  WS02006256           JUNCTION      0.00   300.00     0  00:00           0        1.34      -0.613
  WSF200               JUNCTION      0.00   538.95     0  02:40           0        5.44       0.007
  YS02001580           JUNCTION      0.00    53.17     0  01:59           0     0.00423       1.892
  YS02001583           JUNCTION      0.00    87.62     0  01:59           0      0.0161      -2.412
  YS02001586           JUNCTION   1245.89  1245.89     0  02:26        2.67        2.68       0.033
  YS02001590           JUNCTION      0.00   318.51     0  02:23           0        1.72      -0.026
  YS02001593           JUNCTION      0.00   318.00     0  02:47           0        1.72       0.009
  YS02001596           JUNCTION      0.00   318.08     0  02:16           0        1.72      -0.006
  YS02001600           JUNCTION      0.00   318.12     0  02:16           0        1.72       0.021
  YS02001601           JUNCTION   2080.14  2397.48     0  02:25        3.61        5.33       0.016
  YS02001602           JUNCTION      0.00   495.81     0  01:59           0        2.79       0.018
  YS02001605           JUNCTION      0.00   495.44     0  01:59           0        2.61       0.027
  YS02001607           JUNCTION      0.00   494.83     0  01:59           0        2.61       0.075
  YS02001610           JUNCTION      0.00   954.00     0  02:29           0        3.25       0.075
  YS02001613           JUNCTION      0.00   617.69     0  02:28           0        2.51       0.062
  YS02001616           JUNCTION      0.00   617.83     0  02:29           0        2.51       0.019
  YS02001619           JUNCTION   2197.80  2197.80     0  02:26         4.3        6.16       0.001
  YS02001622           JUNCTION      0.00  1067.22     0  02:23           0        5.35       0.002
  YS02001625           JUNCTION      0.00  1505.47     0  02:30           0        5.84       0.177
  YS02001629           JUNCTION      0.00   925.91     0  02:06           0        4.21       0.013
  YS02001633           JUNCTION   1563.99  1563.99     0  02:25        2.65        6.24       0.060
  YS02001641           JUNCTION      0.00  1314.97     0  02:06           0        5.62       0.054
  YS02001644           JUNCTION   1393.14  2610.90     0  02:25        2.31        8.02       0.045
  YS02001647           JUNCTION      0.00  1669.12     0  02:07           0        6.63       0.007
  YS02001649           JUNCTION      0.00  1918.16     0  02:09           0        8.65       0.005
  YS02001652           JUNCTION      0.00  1362.29     0  02:25           0        2.13      -0.054
  YS02001655           JUNCTION      0.15  1362.00     0  02:25     0.00443        2.13       0.013
  YS02001658           JUNCTION      0.00  1362.38     0  02:25           0        2.13      -0.016
  YS02001661           JUNCTION      0.00  1361.90     0  02:25           0        2.13       0.011
  YS02001664           JUNCTION   1363.16  1363.16     0  02:25        2.13        2.13      -0.009
  YS02001745           JUNCTION    840.75   840.75     0  02:25        1.27        1.27       0.103
  YS02001748           JUNCTION      0.04   847.23     0  02:25      0.0013        1.27      -0.174
  YS02001751           JUNCTION      0.01   846.95     0  02:25    0.000317        1.28       0.035
  YS02001754           JUNCTION      0.26   847.16     0  02:25     0.00749        1.28      -0.107
  YS02001757           JUNCTION      0.00  3144.33     0  02:16           0        13.5       0.028
  YS02001759           JUNCTION   1170.69  1374.42     0  02:23        1.76        3.71      -0.009
  YS02001762           JUNCTION      0.00   729.92     0  02:16           0        1.95       0.004
  YS02001765           JUNCTION      0.00   730.53     0  02:16           0        1.95       0.006
  YS02001767           JUNCTION      0.54   730.66     0  02:16      0.0154        1.95      -0.001
  YS02001770           JUNCTION   1671.05  1671.05     0  02:25        2.67        2.71      -0.011
  YS02001774           JUNCTION      0.00   851.95     0  02:27           0       0.659       0.166
  YS02001779           JUNCTION      0.01   851.69     0  02:27    0.000144       0.613      -0.063
  YS02001783           JUNCTION      0.00  1186.29     0  02:23           0        5.28       0.005
  YS02001784           JUNCTION      1.06  1183.05     0  02:23      0.0305        5.31       0.009
  YS02001786           JUNCTION      0.06  1184.44     0  02:23     0.00162        5.32       0.014
  YS02001788           JUNCTION      0.07  1186.61     0  02:23     0.00204        5.32       0.006
  YS02001790           JUNCTION      0.15  1183.20     0  02:24     0.00446        5.32       0.029
  YS02001791           JUNCTION      0.00  1301.69     0  02:21           0        5.32      -0.038
  YS02001793           JUNCTION      0.00  1255.74     0  02:18           0        5.32       0.003
  YS02001882           JUNCTION      0.00    34.06     0  02:04           0      0.0136       4.365
  YS02001884           JUNCTION      0.00    35.71     0  02:04           0      0.0498       4.988
  YS02001887           JUNCTION   1236.08  1241.68     0  02:25        1.82        1.86       0.245
  YS02001890           JUNCTION      0.00  1240.86     0  02:25           0        1.81       0.295
  YS02001895           JUNCTION      0.00   518.63     0  02:30           0        1.49       0.115
  YS02001898           JUNCTION      0.00   519.15     0  02:23           0        1.49       0.007
  YS02001901           JUNCTION      0.00   518.31     0  02:30           0        1.49       0.224
  YS02001904           JUNCTION      0.00   518.10     0  02:29           0         1.5       0.184
  YS02001907           JUNCTION      0.00  3059.35     0  02:25           0        5.56       0.332
  YS02001910           JUNCTION      0.00  1993.18     0  02:27           0        3.92       0.184
  YS02001915           JUNCTION   1502.29  2252.67     0  02:25        2.54        3.97       0.039
  YS02001918           JUNCTION      0.00   750.71     0  02:25           0        1.44       0.007
  YS02001920           JUNCTION      2.87   749.37     0  02:25      0.0827        1.43       0.066
  YS02001923           JUNCTION      0.04   744.17     0  02:25     0.00109        1.35      -0.007
  YS02001926           JUNCTION      0.05   743.28     0  02:25      0.0015        1.34       0.012
  YS02001929           JUNCTION    739.63   739.63     0  02:25        1.34        1.34      -0.007
  YS02006553           JUNCTION      0.00   805.09     0  02:43           0        2.95       0.402
  YS02006556           JUNCTION      0.00   805.78     0  02:43           0        2.96       0.267
  YS02006558           JUNCTION   1708.69  1708.69     0  02:25        2.67        5.46       0.065
  YS02006561           JUNCTION      0.00  1178.60     0  02:23           0        5.28      -0.004
  YS02163301           JUNCTION      0.00   926.73     0  02:06           0        4.21       0.039
  YS02163601           JUNCTION      0.11  1315.15     0  02:06     0.00317        5.61       0.092
  YS02164001           JUNCTION      0.00  1314.07     0  02:06           0        5.61       0.044
  CC-1                 OUTFALL       0.00   683.00     0  00:00           0        4.73       0.000
  CC-2                 OUTFALL       0.00   683.00     0  00:00           0        4.26       0.000
  JK-1                 OUTFALL       0.00  1000.00     0  00:00           0        2.47       0.000
  JK-2                 OUTFALL       0.00  1000.00     0  00:00           0        1.46       0.000
  WSC                  OUTFALL       0.00   557.44     0  02:43           0        5.96       0.000
  CC-storage           STORAGE       0.00  3143.51     0  02:17           0        15.8      -0.068
  JK-storage           STORAGE       0.00  1256.27     0  02:11           0        5.47       0.159
  
  
  **********************
  Node Surcharge Summary
  **********************
  
  Surcharging occurs when water rises above the top of the highest conduit.
  ---------------------------------------------------------------------
                                               Max. Height   Min. Depth
                                   Hours       Above Crown    Below Rim
  Node                 Type      Surcharged         Meters       Meters
  ---------------------------------------------------------------------
  WS02004404           JUNCTION        0.03          0.045        2.735
  WS02006109           JUNCTION        2.06          0.365        1.455
  WS02006110           JUNCTION        0.70          0.655        1.195
  WS02006112           JUNCTION        0.86          0.095        1.585
  WS02006228           JUNCTION        2.04          0.444        1.756
  WS02006229           JUNCTION        2.10          0.519        1.931
  WS02006230           JUNCTION        0.72          0.484        1.086
  WS02006231           JUNCTION        0.84          0.593        0.937
  WS02006232           JUNCTION        2.19          1.324        0.156
  WS02006234           JUNCTION        1.15          1.240        0.000
  WS02006235           JUNCTION        2.08          1.290        0.000
  WS02006238           JUNCTION        2.14          1.346        0.084
  WS02006239           JUNCTION        2.05          1.200        0.090
  WS02006240           JUNCTION        2.07          1.052        0.338
  WS02006242           JUNCTION        2.13          0.820        0.000
  WS02006243           JUNCTION        2.07          0.673        0.097
  WS02006245           JUNCTION        2.07          0.697        0.153
  WS02006247           JUNCTION        2.08          0.535        0.225
  WS02006248           JUNCTION        2.07          0.380        0.000
  WS02006249           JUNCTION        2.07          0.390        0.000
  WS02006251           JUNCTION        0.91          0.401        0.779
  WS02006252           JUNCTION        2.38          1.100        0.000
  WS02006256           JUNCTION        5.84          2.050        0.000
  YS02001580           JUNCTION        0.95          0.424        0.026
  YS02001583           JUNCTION        0.96          0.407        0.093
  YS02001586           JUNCTION        1.08          0.510        0.000
  YS02001590           JUNCTION        1.16          0.733        0.017
  YS02001593           JUNCTION        1.16          0.744        0.096
  YS02001596           JUNCTION        1.29          0.940        0.130
  YS02001600           JUNCTION        1.47          1.190        0.000
  YS02001601           JUNCTION        1.82          1.440        0.000
  YS02001602           JUNCTION        1.71          1.270        0.000
  YS02001605           JUNCTION        1.66          1.180        0.000
  YS02001607           JUNCTION        1.15          0.680        0.000
  YS02001610           JUNCTION        1.17          0.680        0.000
  YS02001613           JUNCTION        1.14          0.700        0.000
  YS02001616           JUNCTION        1.10          0.610        0.000
  YS02001619           JUNCTION        1.09          0.610        0.000
  YS02001622           JUNCTION        1.09          0.620        0.000
  YS02001625           JUNCTION        1.27          0.780        0.000
  YS02001629           JUNCTION        1.01          0.470        0.000
  YS02001633           JUNCTION        1.31          1.060        0.000
  YS02001641           JUNCTION        1.24          1.100        0.000
  YS02001644           JUNCTION        1.20          0.920        0.000
  YS02001647           JUNCTION        0.94          0.785        0.115
  YS02001649           JUNCTION        1.05          1.046        0.004
  YS02001652           JUNCTION        0.89          0.905        0.225
  YS02001655           JUNCTION        0.72          0.783        0.417
  YS02001658           JUNCTION        0.42          0.592        0.708
  YS02001661           JUNCTION        0.16          0.354        1.036
  YS02001745           JUNCTION        0.01          0.032        1.318
  YS02001748           JUNCTION        0.34          0.354        0.836
  YS02001751           JUNCTION        0.56          0.618        0.582
  YS02001754           JUNCTION        0.82          0.809        0.341
  YS02001757           JUNCTION        1.11          1.168        0.042
  YS02001759           JUNCTION        1.03          1.210        0.000
  YS02001762           JUNCTION        1.00          1.150        0.000
  YS02001765           JUNCTION        0.96          1.081        0.019
  YS02001767           JUNCTION        0.93          1.030        0.000
  YS02001770           JUNCTION        0.91          0.920        0.000
  YS02001774           JUNCTION        0.99          1.050        0.000
  YS02001779           JUNCTION        0.80          0.680        0.000
  YS02001783           JUNCTION        0.80          0.535        1.065
  YS02001784           JUNCTION        0.77          0.384        1.106
  YS02001786           JUNCTION        0.63          0.135        1.295
  YS02001882           JUNCTION        0.73          0.830        0.000
  YS02001884           JUNCTION        0.74          0.841        0.029
  YS02001887           JUNCTION        0.78          0.950        0.000
  YS02001890           JUNCTION        0.80          0.760        0.000
  YS02001895           JUNCTION        0.71          0.619        0.131
  YS02001898           JUNCTION        0.70          0.563        0.177
  YS02001901           JUNCTION        0.77          0.711        0.159
  YS02001904           JUNCTION        0.75          0.649        0.201
  YS02001907           JUNCTION        1.13          0.950        0.000
  YS02001910           JUNCTION        0.84          1.014        0.086
  YS02001915           JUNCTION        0.72          1.000        0.000
  YS02001918           JUNCTION        0.62          0.810        0.000
  YS02001920           JUNCTION        0.63          0.872        0.268
  YS02001923           JUNCTION        0.24          0.447        0.373
  YS02001926           JUNCTION        0.28          0.484        0.416
  YS02001929           JUNCTION        0.13          0.274        0.506
  YS02006553           JUNCTION        1.17          1.190        0.000
  YS02006556           JUNCTION        0.97          1.257        0.093
  YS02006558           JUNCTION        0.95          1.400        0.000
  YS02006561           JUNCTION        0.57          0.241        0.909
  YS02163301           JUNCTION        1.28          1.030        0.000
  YS02163601           JUNCTION        1.35          1.080        0.000
  YS02164001           JUNCTION        1.24          1.100        0.000
  
  
  *********************
  Node Flooding Summary
  *********************
  
  Flooding refers to all water that overflows a node, whether it ponds or not.
  --------------------------------------------------------------------------
                                                             Total   Maximum
                                 Maximum   Time of Max       Flood    Ponded
                        Hours       Rate    Occurrence      Volume     Depth
  Node                 Flooded       LPS   days hr:min    10^6 ltr    Meters
  --------------------------------------------------------------------------
  WS02006234              0.01     81.38      0  02:04       0.000     0.000
  WS02006235              0.01     17.13      0  02:04       0.000     0.000
  WS02006242              0.01     15.52      0  02:04       0.000     0.000
  WS02006248              0.01     16.09      0  02:25       0.000     0.000
  WS02006249              0.88     83.74      0  02:05       0.210     0.000
  WS02006252              0.01    245.63      0  00:00       0.000     0.000
  WS02006256              1.24    293.19      0  00:00       0.417     0.000
  YS02001586              0.76    928.05      0  02:26       0.952     0.000
  YS02001600              0.01      1.06      0  01:59       0.000     0.000
  YS02001601              1.02   1999.67      0  02:25       2.540     0.000
  YS02001602              0.85     62.04      0  02:32       0.177     0.000
  YS02001605              0.01      0.32      0  02:10       0.000     0.000
  YS02001607              0.01      0.10      0  02:23       0.000     0.000
  YS02001610              0.76    953.76      0  02:29       1.384     0.000
  YS02001613              0.01      0.62      0  02:23       0.000     0.000
  YS02001616              0.06      1.78      0  02:26       0.000     0.000
  YS02001619              0.16    530.02      0  02:26       0.169     0.000
  YS02001622              0.01     13.46      0  02:23       0.000     0.000
  YS02001625              0.72   1505.25      0  02:30       2.241     0.000
  YS02001629              0.24    387.10      0  02:25       0.136     0.000
  YS02001633              0.01      6.85      0  02:10       0.000     0.000
  YS02001641              0.01     10.89      0  02:10       0.000     0.000
  YS02001644              0.38   2610.59      0  02:25       1.487     0.000
  YS02001759              0.01      1.11      0  02:21       0.000     0.000
  YS02001762              0.01      0.55      0  02:21       0.000     0.000
  YS02001767              0.01      0.74      0  02:21       0.000     0.000
  YS02001770              0.12    644.36      0  02:25       0.135     0.000
  YS02001774              0.01      8.95      0  02:23       0.000     0.000
  YS02001779              0.33    851.39      0  02:28       0.593     0.000
  YS02001882              0.01      0.36      0  02:23       0.000     0.000
  YS02001887              0.01      2.65      0  02:23       0.000     0.000
  YS02001890              0.31    724.11      0  02:25       0.315     0.000
  YS02001907              0.55   3058.80      0  02:25       2.745     0.000
  YS02001915              0.08    260.13      0  02:25       0.040     0.000
  YS02001918              0.01      0.60      0  02:23       0.000     0.000
  YS02006553              0.01      0.35      0  02:23       0.000     0.000
  YS02006558              0.01      2.64      0  02:23       0.000     0.000
  YS02163301              0.01      0.43      0  02:23       0.000     0.000
  YS02163601              0.01     26.58      0  02:10       0.000     0.000
  YS02164001              0.01     21.35      0  02:10       0.000     0.000
  
  
  **********************
  Storage Volume Summary
  **********************
  
  ------------------------------------------------------------------------------------------------
                         Average    Avg   Evap  Exfil     Maximum    Max    Time of Max    Maximum
                          Volume   Pcnt   Pcnt   Pcnt      Volume   Pcnt     Occurrence    Outflow
  Storage Unit           1000 m³   Full   Loss   Loss     1000 m³   Full    days hr:min        LPS
  ------------------------------------------------------------------------------------------------
  CC-storage               2.644   41.2    0.0    0.0       5.179   80.8       0  02:51    1783.53
  JK-storage               0.142   48.9    0.0    0.0       0.213   73.1       0  02:20    2300.00
  
  
  ***********************
  Outfall Loading Summary
  ***********************
  
  -----------------------------------------------------------
                         Flow       Avg       Max       Total
                         Freq      Flow      Flow      Volume
  Outfall Node           Pcnt       LPS       LPS    10^6 ltr
  -----------------------------------------------------------
  CC-1                  29.62    683.00    683.00       4.731
  CC-2                  23.24    683.00    683.00       4.264
  JK-1                  10.20   1000.00   1000.00       2.473
  JK-2                   5.47   1000.00   1000.00       1.456
  WSC                   99.96    258.36    557.44       5.957
  -----------------------------------------------------------
  System                33.70   3624.36   3922.45      18.881
  
  
  ********************
  Link Flow Summary
  ********************
  
  -----------------------------------------------------------------------------
                                 Maximum  Time of Max   Maximum    Max/    Max/
                                  |Flow|   Occurrence   |Veloc|    Full    Full
  Link                 Type          LPS  days hr:min     m/sec    Flow   Depth
  -----------------------------------------------------------------------------
  1                    CONDUIT    557.44     0  02:43      2.83    0.19    0.30
  WS02003060WS02003069 CONDUIT    555.44     0  02:41      1.64    0.22    0.34
  WS02003066WSF200     CONDUIT    538.95     0  02:40      2.85    0.09    0.22
  WS02003067WS02003066 CONDUIT    538.92     0  02:40      1.21    0.17    0.42
  WS02003069WS02003072 CONDUIT    555.74     0  02:41      1.37    0.27    0.39
  WS02003072WS02003073 CONDUIT    555.74     0  02:42      1.44    1.20    0.37
  WS02004401WS02004402 CONDUIT    541.87     0  02:39      1.23    0.65    0.89
  WS02004402WS02004403 CONDUIT    541.39     0  02:40      1.27    0.78    0.91
  WS02004403WS02004404 CONDUIT    559.22     0  02:35      1.25    0.40    0.96
  WS02004404WS02004405 CONDUIT    605.70     0  02:30      1.48    5.93    0.98
  WS02004405WS02004406 CONDUIT    549.35     0  02:38      1.47    1.08    0.96
  WS02004406WS02004407 CONDUIT    541.48     0  02:38      1.04    0.24    0.63
  WS02004407WS02004409 CONDUIT    540.67     0  02:38      1.47    0.19    0.48
  WS02004409WS02004410 CONDUIT    539.86     0  02:38      0.96    0.70    0.68
  WS02004410WS02004411 CONDUIT    539.47     0  02:39      0.94    0.74    0.69
  WS02004411WS02004412 CONDUIT    539.07     0  02:39      0.96    0.77    0.70
  WS02004412WS02004413 CONDUIT    539.08     0  02:39      1.00    0.36    0.78
  WS02004413WS02003067 CONDUIT    538.91     0  02:40      1.11    0.23    0.59
  WS02006109WS02006110 CONDUIT    565.91     0  02:05      1.13    1.09    1.00
  WS02006110WS02006113 CONDUIT    572.70     0  02:05      1.39    0.52    0.78
  WS02006111WS02006112 CONDUIT    543.35     0  03:08      1.96    0.26    0.67
  WS02006112WS02006115 CONDUIT    552.46     0  03:21      0.81    0.33    0.88
  WS02006113WS02006111 CONDUIT    560.37     0  03:11      2.47    0.67    0.46
  WS02006115WS02006116 CONDUIT    542.40     0  02:33      1.27    0.70    0.78
  WS02006116WS02004401 CONDUIT    541.45     0  02:39      1.21    0.75    0.86
  WS02006228WS02006109 CONDUIT    563.44     0  02:05      1.12    2.46    1.00
  WS02006229WS02006228 CONDUIT    561.61     0  02:05      1.14    1.86    1.00
  WS02006230WS02006229 CONDUIT    562.26     0  02:05      1.46   12.51    1.00
  WS02006231WS02006230 CONDUIT    580.96     0  02:30      1.57    8.81    1.00
  WS02006232WS02006231 CONDUIT    597.34     0  02:04      1.58    1.25    1.00
  WS02006234WS02006232 CONDUIT    594.39     0  02:04      1.54    1.20    1.00
  WS02006235WS02006234 CONDUIT    583.41     0  02:04      1.52    6.16    1.00
  WS02006238WS02006235 CONDUIT    424.87     0  02:50      1.45    0.95    1.00
  WS02006239WS02006238 CONDUIT    425.37     0  02:50      1.11    1.36    1.00
  WS02006240WS02006239 CONDUIT    424.31     0  02:50      1.24    1.34    1.00
  WS02006242WS02006240 CONDUIT    422.26     0  02:50      1.13    1.68    1.00
  WS02006243WS02006242 CONDUIT    422.35     0  02:50      1.40    0.90    1.00
  WS02006245WS02006243 CONDUIT    421.66     0  02:50      1.45    1.25    1.00
  WS02006247WS02006245 CONDUIT    420.82     0  02:50      1.43    3.34    1.00
  WS02006248WS02006247 CONDUIT    421.12     0  02:50      1.44    0.92    1.00
  WS02006249WS02006248 CONDUIT    420.30     0  02:50      1.36    2.30    1.00
  WS02006251WS02006249 CONDUIT    459.02     0  00:00      1.99    1.32    1.00
  WS02006252WS02006251 CONDUIT    405.10     0  03:20     26.09    1.49    1.00
  WS02006256WS02006235 CONDUIT    288.91     0  00:00      4.23    3.06    1.00
  WSF200WS02003060     CONDUIT    539.07     0  02:40      2.07    0.12    0.28
  YS02001580YS02001583 CONDUIT     53.17     0  01:59      0.44    0.21    1.00
  YS02001583YS02001586 CONDUIT     87.62     0  01:59      0.37    0.13    1.00
  YS02001586YS02001590 CONDUIT    318.51     0  02:23      1.23    0.56    1.00
  YS02001590YS02001593 CONDUIT    318.00     0  02:47      1.12    2.00    1.00
  YS02001593YS02001596 CONDUIT    318.08     0  02:16      1.75    0.50    1.00
  YS02001596YS02001600 CONDUIT    318.12     0  02:16      1.30    0.62    1.00
  YS02001600YS02001601 CONDUIT    318.07     0  02:23      1.12    0.55    1.00
  YS02001601YS02001602 CONDUIT    495.81     0  01:59      1.75    1.79    1.00
  YS02001602YS02001605 CONDUIT    495.44     0  01:59      1.75   10.48    1.00
  YS02001605YS02001607 CONDUIT    494.83     0  01:59      1.75    2.71    1.00
  YS02001607YS02001610 CONDUIT    493.11     0  01:59      0.63    0.47    1.00
  YS02001610YS02001613 CONDUIT    617.76     0  02:29      0.79    0.71    1.00
  YS02001613YS02001616 CONDUIT    617.69     0  02:28      0.79    0.53    1.00
  YS02001616YS02001619 CONDUIT    617.83     0  02:29      0.79    1.07    1.00
  YS02001619YS02001622 CONDUIT   1067.22     0  02:23      1.36    1.57    1.00
  YS02001622YS02001625 CONDUIT   1053.71     0  02:30      1.34    0.56    1.00
  YS02001625YS02001629 CONDUIT    925.91     0  02:06      1.18    0.44    1.00
  YS02001629YS02163301 CONDUIT    926.73     0  02:06      1.18    1.14    1.00
  YS02001633YS02163601 CONDUIT   1315.04     0  02:06      1.67    1.38    1.00
  YS02001641YS02001644 CONDUIT   1314.88     0  02:07      1.67    4.25    1.00
  YS02001644YS02001647 CONDUIT   1669.12     0  02:07      2.14    0.98    1.00
  YS02001647YS02001649 CONDUIT   1677.15     0  02:07      2.26    0.89    1.00
  YS02001649YS02001757 CONDUIT   1917.91     0  02:09      2.44    1.16    1.00
  YS02001652YS02001649 CONDUIT   1361.86     0  02:25      1.73    0.67    1.00
  YS02001655YS02001652 CONDUIT   1362.29     0  02:25      1.73    0.66    1.00
  YS02001658YS02001655 CONDUIT   1361.84     0  02:25      1.78    0.58    1.00
  YS02001661YS02001658 CONDUIT   1362.38     0  02:25      2.18    0.53    1.00
  YS02001664YS02001661 CONDUIT   1361.90     0  02:25      2.11    0.43    0.98
  YS02001745YS02001748 CONDUIT    847.18     0  02:25      2.01    0.33    1.00
  YS02001748YS02001751 CONDUIT    846.94     0  02:25      1.58    0.43    1.00
  YS02001751YS02001754 CONDUIT    846.90     0  02:25      1.34    0.41    1.00
  YS02001754YS02001757 CONDUIT    846.47     0  02:25      1.08    0.34    1.00
  YS02001757CaochengTiaoxuchi CONDUIT   3143.51     0  02:17      4.00    1.36    1.00
  YS02001759YS02001757 CONDUIT   1374.54     0  02:23      1.75    0.98    1.00
  YS02001762YS02001759 CONDUIT    731.27     0  02:16      0.93    0.84    1.00
  YS02001765YS02001762 CONDUIT    729.92     0  02:16      0.93    0.68    1.00
  YS02001767YS02001765 CONDUIT    730.53     0  02:16      0.93    0.92    1.00
  YS02001770YS02001767 CONDUIT    730.13     0  02:16      0.93    2.89    1.00
  YS02001774YS02001770 CONDUIT    851.95     0  02:27      1.08    0.54    1.00
  YS02001779YS02001774 CONDUIT    851.68     0  02:27      1.08    0.43    1.00
  YS02001783YS02001784 CONDUIT   1181.99     0  02:23      2.35    1.63    1.00
  YS02001784YS02001785 CONDUIT   1184.38     0  02:23      2.36    2.76    1.00
  YS02001786YS02001788 CONDUIT   1186.54     0  02:23      2.52    2.29    0.89
  YS02001788YS02001790 CONDUIT   1183.05     0  02:24      2.72    0.87    0.84
  YS02001790YS02001791 CONDUIT   1301.69     0  02:21      3.45    1.42    0.71
  YS02001791YS02001793 CONDUIT   1255.74     0  02:18      6.71    0.54    0.45
  YS02001793JiankangQianchi CONDUIT   1256.27     0  02:11      2.52    0.10    0.66
  YS02001882YS02001884 CONDUIT     34.06     0  02:04      0.17    0.04    1.00
  YS02001884YS02001887 CONDUIT     35.71     0  02:04      0.12    0.05    1.00
  YS02001887YS02001890 CONDUIT   1240.86     0  02:25      1.58    2.12    1.00
  YS02001890YS02001895 CONDUIT    518.63     0  02:30      0.66    0.24    1.00
  YS02001895YS02001898 CONDUIT    519.15     0  02:23      0.66    0.90    1.00
  YS02001898YS02001901 CONDUIT    518.31     0  02:30      0.66    0.33    1.00
  YS02001901YS02001904 CONDUIT    518.10     0  02:29      0.66    0.80    1.00
  YS02001904YS02001907 CONDUIT    520.01     0  02:21      0.66    0.18    1.00
  YS02001907YS02006553 CONDUIT    805.09     0  02:43      0.89    0.95    1.00
  YS02001910YS02001907 CONDUIT   1993.03     0  02:27      2.54    1.12    1.00
  YS02001915YS02001910 CONDUIT   1993.18     0  02:27      2.54    0.99    1.00
  YS02001918YS02001915 CONDUIT    751.88     0  02:25      0.96    0.41    1.00
  YS02001920YS02001918 CONDUIT    750.71     0  02:25      0.96    0.73    1.00
  YS02001923YS02001920 CONDUIT    746.50     0  02:25      0.95    0.34    1.00
  YS02001926YS02001923 CONDUIT    744.14     0  02:25      0.95    1.06    1.00
  YS02001929YS02001926 CONDUIT    743.23     0  02:25      1.05    0.35    1.00
  YS02006553YS02006556 CONDUIT    805.78     0  02:43      1.03    0.69    1.00
  YS02006556YS02006558 CONDUIT    807.79     0  02:43      1.03    0.64    1.00
  YS02006558YS02006561 CONDUIT   1178.60     0  02:23      4.17    2.61    1.00
  YS02006561YS02001783 CONDUIT   1186.29     0  02:23      2.36    0.61    1.00
  YS02163301YS02001633 CONDUIT    926.31     0  02:06      1.18    0.87    1.00
  YS02163601YS02164001 CONDUIT   1314.07     0  02:06      1.67    1.16    1.00
  YS02164001YS02001641 CONDUIT   1314.97     0  02:06      1.67    1.80    1.00
  CC-R1                PUMP       683.00     0  00:00              1.00
  CC-R2                PUMP       683.00     0  00:00              1.00
  CC-S1                PUMP       200.00     0  00:00              1.00
  CC-S2                PUMP       200.00     0  00:00              1.00
  JK-R1                PUMP      1000.00     0  00:00              1.00
  JK-R2                PUMP      1000.00     0  00:00              1.00
  JK-S                 PUMP       300.00     0  00:00              1.00
  
  
  ***************************
  Flow Classification Summary
  ***************************
  
  -------------------------------------------------------------------------------------
                      Adjusted    ---------- Fraction of Time in Flow Class ---------- 
                       /Actual         Up    Down  Sub   Sup   Up    Down  Norm  Inlet 
  Conduit               Length    Dry  Dry   Dry   Crit  Crit  Crit  Crit  Ltd   Ctrl  
  -------------------------------------------------------------------------------------
  1                       1.00   0.00  0.00  0.00  0.00  1.00  0.00  0.00  0.39  0.00
  WS02003060WS02003069    1.00   0.00  0.00  0.00  0.97  0.03  0.00  0.00  0.66  0.00
  WS02003066WSF200        1.00   0.05  0.00  0.00  0.00  0.94  0.00  0.00  0.83  0.00
  WS02003067WS02003066    1.00   0.05  0.00  0.00  0.95  0.00  0.00  0.00  0.00  0.00
  WS02003069WS02003072    1.00   0.00  0.00  0.00  0.99  0.01  0.00  0.00  0.70  0.00
  WS02003072WS02003073    1.00   0.00  0.00  0.00  0.00  0.00  0.00  1.00  0.00  0.00
  WS02004401WS02004402    1.00   0.02  0.00  0.00  0.98  0.00  0.00  0.00  0.00  0.00
  WS02004402WS02004403    1.00   0.02  0.00  0.00  0.98  0.00  0.00  0.00  0.00  0.00
  WS02004403WS02004404    1.00   0.00  0.03  0.00  0.97  0.00  0.00  0.00  0.00  0.00
  WS02004404WS02004405    1.00   0.00  0.00  0.00  1.00  0.00  0.00  0.00  0.02  0.00
  WS02004405WS02004406    1.00   0.00  0.00  0.00  1.00  0.00  0.00  0.00  0.00  0.00
  WS02004406WS02004407    1.00   0.00  0.03  0.00  0.97  0.00  0.00  0.00  0.00  0.00
  WS02004407WS02004409    1.00   0.03  0.00  0.00  0.96  0.01  0.00  0.00  0.96  0.00
  WS02004409WS02004410    1.00   0.03  0.00  0.00  0.96  0.00  0.00  0.00  0.00  0.00
  WS02004410WS02004411    1.00   0.03  0.00  0.00  0.96  0.00  0.00  0.00  0.00  0.00
  WS02004411WS02004412    1.00   0.04  0.00  0.00  0.96  0.00  0.00  0.00  0.00  0.00
  WS02004412WS02004413    1.00   0.04  0.00  0.00  0.96  0.00  0.00  0.00  0.00  0.00
  WS02004413WS02003067    1.00   0.04  0.01  0.00  0.00  0.00  0.95  0.00  0.00  0.00
  WS02006109WS02006110    1.00   0.00  0.01  0.00  0.98  0.00  0.01  0.00  0.00  0.00
  WS02006110WS02006113    1.00   0.01  0.01  0.00  0.98  0.00  0.00  0.00  0.00  0.00
  WS02006111WS02006112    1.00   0.02  0.00  0.00  0.98  0.00  0.00  0.00  0.98  0.00
  WS02006112WS02006115    1.00   0.02  0.00  0.00  0.97  0.00  0.00  0.00  0.00  0.00
  WS02006113WS02006111    1.00   0.02  0.00  0.00  0.00  0.98  0.00  0.00  0.15  0.00
  WS02006115WS02006116    1.00   0.02  0.00  0.00  0.97  0.00  0.00  0.01  0.00  0.00
  WS02006116WS02004401    1.00   0.02  0.00  0.00  0.98  0.00  0.00  0.00  0.00  0.00
  WS02006228WS02006109    1.00   0.00  0.00  0.00  1.00  0.00  0.00  0.00  0.00  0.00
  WS02006229WS02006228    1.00   0.00  0.00  0.00  0.99  0.00  0.00  0.01  0.00  0.00
  WS02006230WS02006229    1.00   0.00  0.00  0.00  0.99  0.00  0.00  0.01  0.00  0.00
  WS02006231WS02006230    1.00   0.00  0.00  0.00  0.30  0.00  0.70  0.00  0.00  0.00
  WS02006232WS02006231    1.00   0.00  0.00  0.00  0.99  0.00  0.01  0.00  0.00  0.00
  WS02006234WS02006232    1.00   0.00  0.00  0.00  1.00  0.00  0.00  0.00  0.18  0.00
  WS02006235WS02006234    1.00   0.00  0.00  0.00  0.77  0.00  0.23  0.00  0.00  0.00
  WS02006238WS02006235    1.00   0.00  0.00  0.00  1.00  0.00  0.00  0.00  0.00  0.00
  WS02006239WS02006238    1.00   0.00  0.00  0.00  1.00  0.00  0.00  0.00  0.27  0.00
  WS02006240WS02006239    1.00   0.00  0.00  0.00  0.67  0.00  0.00  0.33  0.03  0.00
  WS02006242WS02006240    1.00   0.00  0.00  0.00  0.98  0.00  0.02  0.00  0.00  0.00
  WS02006243WS02006242    1.00   0.00  0.00  0.00  0.98  0.00  0.00  0.02  0.44  0.00
  WS02006245WS02006243    1.00   0.00  0.00  0.00  0.74  0.00  0.00  0.25  0.01  0.00
  WS02006247WS02006245    1.00   0.00  0.00  0.00  0.97  0.00  0.00  0.02  0.00  0.00
  WS02006248WS02006247    1.00   0.00  0.00  0.00  0.99  0.00  0.00  0.01  0.25  0.00
  WS02006249WS02006248    1.00   0.00  0.00  0.00  0.57  0.00  0.43  0.00  0.00  0.00
  WS02006251WS02006249    1.00   0.00  0.00  0.00  0.99  0.01  0.00  0.00  0.46  0.00
  WS02006252WS02006251    1.00   0.12  0.38  0.00  0.11  0.00  0.38  0.00  0.00  0.00
  WS02006256WS02006235    1.00   0.00  0.00  0.00  1.00  0.00  0.00  0.00  0.00  0.00
  WSF200WS02003060        1.00   0.00  0.06  0.00  0.27  0.67  0.00  0.00  0.52  0.00
  YS02001580YS02001583    1.00   0.24  0.52  0.00  0.24  0.00  0.00  0.00  0.61  0.00
  YS02001583YS02001586    1.00   0.39  0.32  0.00  0.29  0.00  0.00  0.00  0.62  0.00
  YS02001586YS02001590    1.00   0.13  0.00  0.00  0.48  0.04  0.00  0.36  0.37  0.00
  YS02001590YS02001593    1.00   0.13  0.01  0.00  0.16  0.00  0.71  0.00  0.00  0.00
  YS02001593YS02001596    1.00   0.13  0.00  0.00  0.18  0.01  0.00  0.68  0.02  0.00
  YS02001596YS02001600    1.00   0.13  0.00  0.00  0.24  0.01  0.00  0.61  0.04  0.00
  YS02001600YS02001601    1.00   0.13  0.01  0.00  0.86  0.00  0.00  0.00  0.57  0.00
  YS02001601YS02001602    1.00   0.13  0.01  0.00  0.87  0.00  0.00  0.00  0.00  0.00
  YS02001602YS02001605    1.00   0.13  0.00  0.00  0.87  0.00  0.00  0.00  0.00  0.00
  YS02001605YS02001607    1.00   0.13  0.00  0.00  0.87  0.00  0.00  0.00  0.00  0.00
  YS02001607YS02001610    1.00   0.13  0.00  0.00  0.86  0.00  0.00  0.00  0.01  0.00
  YS02001610YS02001613    1.00   0.13  0.00  0.00  0.87  0.00  0.00  0.00  0.00  0.00
  YS02001613YS02001616    1.00   0.13  0.00  0.00  0.87  0.00  0.00  0.00  0.00  0.00
  YS02001616YS02001619    1.00   0.13  0.00  0.00  0.87  0.00  0.00  0.00  0.00  0.00
  YS02001619YS02001622    1.00   0.13  0.00  0.00  0.87  0.00  0.00  0.00  0.26  0.00
  YS02001622YS02001625    1.00   0.13  0.00  0.00  0.87  0.00  0.00  0.00  0.03  0.00
  YS02001625YS02001629    1.00   0.13  0.04  0.00  0.22  0.00  0.62  0.00  0.00  0.00
  YS02001629YS02163301    1.00   0.14  0.01  0.00  0.85  0.00  0.00  0.00  0.00  0.00
  YS02001633YS02163601    1.00   0.00  0.01  0.00  0.99  0.00  0.00  0.00  0.14  0.00
  YS02001641YS02001644    1.00   0.00  0.01  0.00  0.99  0.00  0.00  0.00  0.00  0.00
  YS02001644YS02001647    1.00   0.00  0.16  0.00  0.84  0.00  0.00  0.00  0.00  0.00
  YS02001647YS02001649    1.00   0.00  0.16  0.00  0.57  0.27  0.00  0.00  0.54  0.00
  YS02001649YS02001757    1.00   0.00  0.00  0.00  0.85  0.14  0.00  0.00  0.40  0.00
  YS02001652YS02001649    1.00   0.00  0.00  0.00  0.97  0.03  0.00  0.00  0.69  0.00
  YS02001655YS02001652    1.00   0.00  0.00  0.00  0.25  0.01  0.00  0.74  0.06  0.00
  YS02001658YS02001655    1.00   0.00  0.14  0.00  0.70  0.17  0.00  0.00  0.64  0.00
  YS02001661YS02001658    1.00   0.14  0.00  0.00  0.53  0.33  0.00  0.00  0.65  0.00
  YS02001664YS02001661    1.00   0.13  0.00  0.00  0.77  0.10  0.00  0.00  0.84  0.00
  YS02001745YS02001748    1.00   0.00  0.00  0.00  0.14  0.00  0.00  0.86  0.04  0.00
  YS02001748YS02001751    1.00   0.00  0.00  0.00  0.85  0.15  0.00  0.00  0.71  0.00
  YS02001751YS02001754    1.00   0.00  0.00  0.00  0.22  0.01  0.00  0.77  0.04  0.00
  YS02001754YS02001757    1.00   0.00  0.00  0.00  1.00  0.00  0.00  0.00  0.76  0.00
  YS02001757CaochengTiaoxuchi    1.00   0.00  0.00  0.00  0.93  0.07  0.00  0.00  0.47  0.00
  YS02001759YS02001757    1.00   0.00  0.00  0.00  0.98  0.02  0.00  0.00  0.48  0.00
  YS02001762YS02001759    1.00   0.00  0.00  0.00  1.00  0.00  0.00  0.00  0.04  0.00
  YS02001765YS02001762    1.00   0.00  0.00  0.00  1.00  0.00  0.00  0.00  0.61  0.00
  YS02001767YS02001765    1.00   0.00  0.00  0.00  1.00  0.00  0.00  0.00  0.01  0.00
  YS02001770YS02001767    1.00   0.00  0.00  0.00  1.00  0.00  0.00  0.00  0.00  0.00
  YS02001774YS02001770    1.00   0.00  0.13  0.00  0.71  0.00  0.15  0.00  0.02  0.00
  YS02001779YS02001774    1.00   0.00  0.00  0.00  1.00  0.00  0.00  0.00  0.71  0.00
  YS02001783YS02001784    1.00   0.00  0.16  0.00  0.84  0.00  0.00  0.00  0.54  0.00
  YS02001784YS02001785    1.00   0.00  0.00  0.00  1.00  0.00  0.00  0.00  0.15  0.00
  YS02001786YS02001788    1.00   0.00  0.00  0.00  0.79  0.21  0.00  0.00  0.00  0.00
  YS02001788YS02001790    1.00   0.00  0.00  0.00  0.21  0.79  0.00  0.00  0.77  0.00
  YS02001790YS02001791    1.00   0.00  0.00  0.00  0.01  0.99  0.00  0.00  0.15  0.00
  YS02001791YS02001793    1.00   0.00  0.00  0.00  0.00  1.00  0.00  0.00  0.02  0.00
  YS02001793JiankangQianchi    1.00   0.00  0.00  0.00  0.97  0.03  0.00  0.00  0.94  0.00
  YS02001882YS02001884    1.00   0.14  0.01  0.00  0.85  0.00  0.00  0.00  0.00  0.00
  YS02001884YS02001887    1.00   0.06  0.05  0.00  0.89  0.00  0.00  0.00  0.00  0.00
  YS02001887YS02001890    1.00   0.00  0.00  0.00  0.97  0.00  0.03  0.00  0.00  0.00
  YS02001890YS02001895    1.00   0.00  0.15  0.00  0.85  0.00  0.00  0.00  0.00  0.00
  YS02001895YS02001898    1.00   0.15  0.00  0.00  0.83  0.00  0.02  0.00  0.00  0.00
  YS02001898YS02001901    1.00   0.15  0.00  0.00  0.85  0.00  0.00  0.00  0.01  0.00
  YS02001901YS02001904    1.00   0.15  0.00  0.00  0.85  0.00  0.00  0.00  0.00  0.00
  YS02001904YS02001907    1.00   0.00  0.15  0.00  0.85  0.00  0.00  0.00  0.00  0.00
  YS02001907YS02006553    1.00   0.00  0.02  0.00  0.98  0.00  0.00  0.00  0.00  0.00
  YS02001910YS02001907    1.00   0.00  0.00  0.00  0.97  0.00  0.00  0.03  0.11  0.00
  YS02001915YS02001910    1.00   0.00  0.00  0.00  0.97  0.03  0.00  0.00  0.13  0.00
  YS02001918YS02001915    1.00   0.00  0.01  0.00  0.98  0.02  0.00  0.00  0.70  0.00
  YS02001920YS02001918    1.00   0.00  0.01  0.00  0.99  0.00  0.00  0.00  0.00  0.00
  YS02001923YS02001920    1.00   0.00  0.00  0.00  1.00  0.00  0.00  0.00  0.89  0.00
  YS02001926YS02001923    1.00   0.00  0.07  0.00  0.09  0.00  0.83  0.00  0.00  0.00
  YS02001929YS02001926    1.00   0.00  0.13  0.00  0.87  0.00  0.00  0.00  0.79  0.00
  YS02006553YS02006556    1.00   0.01  0.00  0.00  0.99  0.00  0.00  0.00  0.03  0.00
  YS02006556YS02006558    1.00   0.00  0.00  0.00  1.00  0.00  0.00  0.00  0.00  0.00
  YS02006558YS02006561    1.00   0.16  0.00  0.00  0.08  0.75  0.00  0.00  0.17  0.00
  YS02006561YS02001783    1.00   0.16  0.00  0.00  0.13  0.71  0.00  0.00  0.65  0.00
  YS02163301YS02001633    1.00   0.00  0.14  0.00  0.86  0.00  0.00  0.00  0.00  0.00
  YS02163601YS02164001    1.00   0.00  0.08  0.00  0.92  0.00  0.00  0.00  0.00  0.00
  YS02164001YS02001641    1.00   0.01  0.07  0.00  0.92  0.00  0.00  0.00  0.05  0.00
  
  
  *************************
  Conduit Surcharge Summary
  *************************
  
  ----------------------------------------------------------------------------
                                                           Hours        Hours 
                         --------- Hours Full --------   Above Full   Capacity
  Conduit                Both Ends  Upstream  Dnstream   Normal Flow   Limited
  ----------------------------------------------------------------------------
  WS02003072WS02003073        0.01      0.01      0.01      1.29         0.01
  WS02004403WS02004404        0.01      0.01      0.02      0.01         0.01
  WS02004404WS02004405        0.01      0.02      0.01      4.00         0.01
  WS02004405WS02004406        0.01      0.01      0.01      0.68         0.01
  WS02006109WS02006110        0.70      0.70      2.19      0.82         0.01
  WS02006110WS02006113        0.01      0.01      2.15      0.01         0.01
  WS02006111WS02006112        0.01      0.01      2.46      0.01         0.01
  WS02006112WS02006115        0.01      0.01      0.86      0.01         0.01
  WS02006228WS02006109        2.06      2.19      2.06      2.78         2.06
  WS02006229WS02006228        2.04      2.10      2.04      2.50         2.02
  WS02006230WS02006229        2.28      2.43      2.28      4.60         2.28
  WS02006231WS02006230        0.72      0.72      0.89      4.15         0.01
  WS02006232WS02006231        0.84      0.84      2.19      0.89         0.01
  WS02006234WS02006232        1.97      1.97      2.19      0.88         0.87
  WS02006235WS02006234        1.14      1.15      2.08      4.06         0.02
  WS02006238WS02006235        2.11      2.11      2.20      0.01         0.01
  WS02006239WS02006238        2.08      2.11      2.14      2.29         1.89
  WS02006240WS02006239        2.04      2.08      2.04      2.29         1.78
  WS02006242WS02006240        2.07      2.07      2.18      2.41         0.01
  WS02006243WS02006242        2.08      2.08      2.13      0.01         0.04
  WS02006245WS02006243        2.07      2.08      2.07      1.53         1.43
  WS02006247WS02006245        2.07      2.09      2.07      3.87         2.06
  WS02006248WS02006247        2.07      2.07      2.08      0.01         0.05
  WS02006249WS02006248        2.07      2.07      2.07      3.81         0.01
  WS02006251WS02006249        2.07      2.07      2.07      2.32         2.01
  WS02006252WS02006251        2.37      2.37      2.38      2.38         0.01
  WS02006256WS02006235        4.04      4.08      5.81      1.24         0.01
  YS02001580YS02001583        0.95      0.95      1.01      0.01         0.01
  YS02001583YS02001586        0.96      0.96      1.08      0.01         0.01
  YS02001586YS02001590        1.09      1.09      1.16      0.01         0.01
  YS02001590YS02001593        1.16      1.16      1.19      1.15         0.01
  YS02001593YS02001596        1.17      1.17      1.29      0.01         0.01
  YS02001596YS02001600        1.36      1.36      1.47      0.01         0.01
  YS02001600YS02001601        1.53      1.53      1.82      0.01         0.01
  YS02001601YS02001602        1.71      1.71      1.86      1.47         0.01
  YS02001602YS02001605        1.66      1.66      1.71      2.62         0.01
  YS02001605YS02001607        1.61      1.66      1.62      1.75         1.59
  YS02001607YS02001610        1.15      1.15      1.17      0.01         0.01
  YS02001610YS02001613        1.14      1.14      1.17      0.01         0.01
  YS02001613YS02001616        1.10      1.10      1.14      0.01         0.01
  YS02001616YS02001619        1.09      1.09      1.10      0.16         0.13
  YS02001619YS02001622        1.09      1.09      1.09      1.15         1.04
  YS02001622YS02001625        1.09      1.09      1.27      0.01         0.01
  YS02001625YS02001629        1.01      1.01      1.27      0.01         0.01
  YS02001629YS02163301        1.27      1.27      1.28      0.18         0.23
  YS02001633YS02163601        1.31      1.31      1.35      0.38         0.39
  YS02001641YS02001644        1.20      1.24      1.20      1.89         1.19
  YS02001644YS02001647        0.94      0.94      1.20      0.01         0.01
  YS02001647YS02001649        0.94      0.94      1.05      0.01         0.01
  YS02001649YS02001757        1.05      1.05      1.11      0.23         0.12
  YS02001652YS02001649        0.91      0.91      1.05      0.01         0.01
  YS02001655YS02001652        0.72      0.72      0.89      0.01         0.01
  YS02001658YS02001655        0.42      0.42      0.72      0.01         0.01
  YS02001661YS02001658        0.16      0.16      0.42      0.01         0.01
  YS02001664YS02001661        0.01      0.01      0.22      0.01         0.01
  YS02001745YS02001748        0.01      0.01      0.34      0.01         0.01
  YS02001748YS02001751        0.39      0.39      0.56      0.01         0.01
  YS02001751YS02001754        0.56      0.56      0.82      0.01         0.01
  YS02001754YS02001757        0.86      0.86      1.11      0.01         0.01
  YS02001757CaochengTiaoxuchi        1.10      1.11      1.96      0.60         0.52
  YS02001759YS02001757        1.03      1.03      1.11      0.01         0.01
  YS02001762YS02001759        1.00      1.00      1.03      0.01         0.01
  YS02001765YS02001762        0.96      0.96      1.00      0.01         0.01
  YS02001767YS02001765        0.93      0.93      0.96      0.01         0.03
  YS02001770YS02001767        0.93      0.94      0.93      0.78         0.60
  YS02001774YS02001770        0.91      0.91      0.99      0.01         0.01
  YS02001779YS02001774        0.80      0.80      0.99      0.01         0.01
  YS02001783YS02001784        0.77      0.80      0.77      1.02         0.77
  YS02001784YS02001785        0.63      0.77      0.63      1.34         0.63
  YS02001786YS02001788        0.01      0.63      0.01      1.20         0.01
  YS02001790YS02001791        0.01      0.01      0.01      0.75         0.01
  YS02001793JiankangQianchi        0.01      0.01      7.51      0.01         0.01
  YS02001882YS02001884        0.73      0.73      0.74      0.01         0.01
  YS02001884YS02001887        0.77      0.77      0.78      0.01         0.01
  YS02001887YS02001890        0.80      0.80      0.82      0.23         0.01
  YS02001890YS02001895        0.71      0.71      0.84      0.01         0.01
  YS02001895YS02001898        0.70      0.70      0.71      0.01         0.01
  YS02001898YS02001901        0.72      0.72      0.77      0.01         0.01
  YS02001901YS02001904        0.75      0.75      0.77      0.01         0.01
  YS02001904YS02001907        0.75      0.75      1.17      0.01         0.01
  YS02001907YS02006553        1.35      1.35      1.42      0.01         0.01
  YS02001910YS02001907        0.84      0.84      1.13      0.11         0.11
  YS02001915YS02001910        0.72      0.72      0.84      0.01         0.01
  YS02001918YS02001915        0.62      0.62      0.72      0.01         0.01
  YS02001920YS02001918        0.62      0.62      0.63      0.01         0.01
  YS02001923YS02001920        0.57      0.57      0.63      0.01         0.01
  YS02001926YS02001923        0.24      0.24      0.28      0.05         0.01
  YS02001929YS02001926        0.13      0.13      0.28      0.01         0.01
  YS02006553YS02006556        0.97      0.97      1.17      0.01         0.01
  YS02006556YS02006558        1.07      1.07      1.19      0.01         0.01
  YS02006558YS02006561        0.66      0.95      0.66      1.29         0.66
  YS02006561YS02001783        0.57      0.57      0.80      0.01         0.01
  YS02163301YS02001633        1.28      1.28      1.33      0.01         0.01
  YS02163601YS02164001        1.24      1.24      1.35      0.17         0.01
  YS02164001YS02001641        1.24      1.24      1.24      0.83         0.74
  
  
  ***************
  Pumping Summary
  ***************
  
  ---------------------------------------------------------------------------------------------------------
                                                  Min       Avg       Max     Total     Power    % Time Off
                        Percent   Number of      Flow      Flow      Flow    Volume     Usage    Pump Curve
  Pump                 Utilized   Start-Ups       LPS       LPS       LPS  10^6 ltr     Kw-hr    Low   High
  ---------------------------------------------------------------------------------------------------------
  CC-R1                   24.05           6      0.00    683.00    683.00     4.731     88.64    0.0   22.0
  CC-R2                   21.67           3      0.00    683.00    683.00     4.263     80.36    0.0   21.4
  CC-S1                   46.68          10      0.00    200.00    200.00     2.689     15.42    0.0    0.0
  CC-S2                   32.49           7      0.00    200.00    200.00     1.871     10.53    0.0    0.0
  JK-R1                    8.58          14      0.00   1000.00   1000.00     2.471     28.50    0.0    0.0
  JK-R2                    5.05          11      0.00   1000.00   1000.00     1.454     13.53    0.0    0.0
  JK-S                    15.44          16      0.00    300.00    300.00     1.334     19.66    0.0    0.0
  

  Analysis begun on:  Tue Apr 15 14:52:07 2025
  Analysis ended on:  Tue Apr 15 14:52:09 2025
  Total elapsed time: 00:00:02