
  EPA STORM WATER MANAGEMENT MODEL - VERSION 5.2 (Build 5.2.4)
  PYSWMM TOOLKIT API - VERSION v1.0 (2023-11-27)
  ------------------------------------------------------------

  WARNING 04: minimum elevation drop used for Conduit WS02004404WS02004405
  WARNING 03: negative offset ignored for Link YS02001904YS02001907
  
  ****************
  Analysis Options
  ****************
  Flow Units ............... LPS
  Process Models:
    Rainfall/Runoff ........ YES
    RDII ................... NO
    Snowmelt ............... NO
    Groundwater ............ NO
    Flow Routing ........... YES
    Ponding Allowed ........ NO
    Water Quality .......... NO
  Infiltration Method ...... HORTON
  Flow Routing Method ...... DYNWAVE
  Surcharge Method ......... EXTRAN
  Starting Date ............ 08/28/2015 08:00:00
  Ending Date .............. 08/28/2015 16:00:00
  Antecedent Dry Days ...... 8.0
  Report Time Step ......... 00:01:00
  Wet Time Step ............ 00:01:00
  Dry Time Step ............ 00:01:00
  Routing Time Step ........ 30.00 sec
  Variable Time Step ....... YES
  Maximum Trials ........... 8
  Number of Threads ........ 4
  Head Tolerance ........... 0.001500 m
  
  
  **************************        Volume         Depth
  Runoff Quantity Continuity     hectare-m            mm
  **************************     ---------       -------
  Total Precipitation ......         7.979       240.547
  Evaporation Loss .........         0.000         0.000
  Infiltration Loss ........         0.110         3.319
  Surface Runoff ...........         7.838       236.287
  Final Storage ............         0.033         1.000
  Continuity Error (%) .....        -0.025
  
  
  **************************        Volume        Volume
  Flow Routing Continuity        hectare-m      10^6 ltr
  **************************     ---------     ---------
  Dry Weather Inflow .......         0.025         0.251
  Wet Weather Inflow .......         7.836        78.359
  Groundwater Inflow .......         0.000         0.000
  RDII Inflow ..............         0.000         0.000
  External Inflow ..........         0.083         0.834
  External Outflow .........         2.874        28.738
  Flooding Loss ............         5.127        51.274
  Evaporation Loss .........         0.000         0.000
  Exfiltration Loss ........         0.000         0.000
  Initial Stored Volume ....         0.243         2.431
  Final Stored Volume ......         0.197         1.965
  Continuity Error (%) .....        -0.125
  
  
  *************************
  Highest Continuity Errors
  *************************
  Node YS02001583 (-16.61%)
  Node YS02001884 (6.09%)
  
  
  ***************************
  Time-Step Critical Elements
  ***************************
  Link WS02006252WS02006251 (36.23%)
  Link YS02001791YS02001793 (18.13%)
  Link WS02006238WS02006235 (13.48%)
  Link WS02004404WS02004405 (11.78%)
  Link WS02006235WS02006234 (9.09%)
  
  
  ********************************
  Highest Flow Instability Indexes
  ********************************
  Link WS02006113WS02006111 (56)
  Link WS02006111WS02006112 (35)
  Link YS02001602YS02001605 (28)
  Link YS02001605YS02001607 (27)
  Link WS02004404WS02004405 (26)
  
  
  *********************************
  Most Frequent Nonconverging Nodes
  *********************************
  Node CC-1 (17.14%)
  Node CC-2 (17.14%)
  Node JK-1 (17.14%)
  Node JK-2 (17.14%)
  Node WSC (17.14%)
  
  
  *************************
  Routing Time Step Summary
  *************************
  Minimum Time Step           :     0.00 sec
  Average Time Step           :     1.87 sec
  Maximum Time Step           :     7.04 sec
  % of Time in Steady State   :     0.00
  Average Iterations per Step :     3.60
  % of Steps Not Converging   :    17.14
  Time Step Frequencies       :
     30.000 - 13.228 sec      :     0.00 %
     13.228 -  5.833 sec      :     5.19 %
      5.833 -  2.572 sec      :    17.03 %
      2.572 -  1.134 sec      :    34.21 %
      1.134 -  0.500 sec      :    43.56 %
  
  
  ***************************
  Subcatchment Runoff Summary
  ***************************
  
  ------------------------------------------------------------------------------------------------------------------------------
                            Total      Total      Total      Total     Imperv       Perv      Total       Total     Peak  Runoff
                           Precip      Runon       Evap      Infil     Runoff     Runoff     Runoff      Runoff   Runoff   Coeff
  Subcatchment                 mm         mm         mm         mm         mm         mm         mm    10^6 ltr      LPS
  ------------------------------------------------------------------------------------------------------------------------------
  sub60                    240.55       0.00       0.00       1.96     210.54      26.91     237.45        3.12   733.01   0.987
  sub61                    240.55       0.00       0.00       2.86     198.59      38.05     236.63        4.34  1022.21   0.984
  sub62                    240.55       0.00       0.00       1.31     220.06      17.94     238.01        6.52  1528.48   0.989
  sub63                    240.55       0.00       0.00       5.31     169.87      64.46     234.33        5.32  1254.01   0.974
  sub64                    240.55       0.00       0.00       2.68     203.29      33.41     236.70        5.69  1334.44   0.984
  sub65                    240.55       0.00       0.00       2.32     208.05      28.96     237.01        6.52  1529.23   0.985
  sub66                    240.55       0.00       0.00       6.59     169.73      63.17     232.90       10.86  2445.99   0.968
  sub67                    240.55       0.00       0.00       1.24     220.14      18.01     238.15        4.43  1039.45   0.990
  sub68                    240.55       0.00       0.00       2.37     205.73      31.31     237.05        6.52  1533.32   0.985
  sub69                    240.55       0.00       0.00       2.18     204.38      33.91     238.29        8.82  2053.47   0.991
  sub70                    240.55       0.00       0.00       7.26     158.60      74.53     233.14        6.74  1452.71   0.969
  sub71                    240.55       0.00       0.00       1.35     220.01      17.90     237.91        6.22  1455.90   0.989
  sub72                    240.55       0.00       0.00       1.20     222.33      15.64     237.96        3.27   762.42   0.989
  
  
  ******************
  Node Depth Summary
  ******************
  
  ---------------------------------------------------------------------------------
                                 Average  Maximum  Maximum  Time of Max    Reported
                                   Depth    Depth      HGL   Occurrence   Max Depth
  Node                 Type       Meters   Meters   Meters  days hr:min      Meters
  ---------------------------------------------------------------------------------
  WS02003060           JUNCTION     0.27     0.38     5.32     0  01:58        0.38
  WS02003066           JUNCTION     0.22     0.30     5.85     0  01:57        0.30
  WS02003067           JUNCTION     0.55     0.70     6.02     0  01:57        0.70
  WS02003069           JUNCTION     0.30     0.43     5.02     0  01:58        0.43
  WS02003072           JUNCTION     0.37     0.50     4.87     0  01:59        0.50
  WS02003073           JUNCTION     0.21     0.30     4.36     0  01:59        0.30
  WS02004401           JUNCTION     0.66     0.88     6.88     0  03:05        0.88
  WS02004402           JUNCTION     0.69     0.90     6.86     0  02:56        0.90
  WS02004403           JUNCTION     0.71     0.92     6.85     0  01:55        0.92
  WS02004404           JUNCTION     0.78     1.04     6.89     0  03:04        1.00
  WS02004405           JUNCTION     0.77     0.97     6.82     0  03:03        0.96
  WS02004406           JUNCTION     0.78     0.96     6.79     0  03:06        0.96
  WS02004407           JUNCTION     0.20     0.30     6.61     0  02:56        0.30
  WS02004409           JUNCTION     0.45     0.67     6.44     0  01:56        0.67
  WS02004410           JUNCTION     0.48     0.68     6.40     0  01:56        0.68
  WS02004411           JUNCTION     0.49     0.69     6.37     0  01:57        0.69
  WS02004412           JUNCTION     0.51     0.70     6.34     0  01:57        0.70
  WS02004413           JUNCTION     0.67     0.86     6.33     0  01:57        0.86
  WS02006109           JUNCTION     0.72     1.29     7.91     0  02:31        1.29
  WS02006110           JUNCTION     0.71     1.28     7.86     0  02:03        1.14
  WS02006111           JUNCTION     0.20     0.29     7.00     0  03:27        0.29
  WS02006112           JUNCTION     0.82     1.09     6.97     0  03:01        1.08
  WS02006113           JUNCTION     0.31     0.46     7.35     0  03:27        0.46
  WS02006115           JUNCTION     0.54     0.77     6.91     0  02:55        0.77
  WS02006116           JUNCTION     0.63     0.86     6.90     0  03:05        0.86
  WS02006228           JUNCTION     0.71     1.33     7.98     0  02:31        1.33
  WS02006229           JUNCTION     0.69     1.36     8.05     0  03:30        1.27
  WS02006230           JUNCTION     0.70     1.61     8.35     0  03:30        1.23
  WS02006231           JUNCTION     0.50     1.26     8.38     0  03:30        0.99
  WS02006232           JUNCTION     0.64     1.40     8.44     0  01:14        1.19
  WS02006234           JUNCTION     0.58     1.85     9.00     0  02:55        1.21
  WS02006235           JUNCTION     0.62     1.51     8.68     0  02:55        1.30
  WS02006238           JUNCTION     0.65     1.56     8.71     0  02:55        1.34
  WS02006239           JUNCTION     0.62     1.51     8.72     0  02:55        1.34
  WS02006240           JUNCTION     0.59     1.47     8.76     0  02:55        1.27
  WS02006242           JUNCTION     0.67     1.51     8.78     0  02:19        1.33
  WS02006243           JUNCTION     0.58     1.39     8.81     0  02:19        1.21
  WS02006245           JUNCTION     0.58     1.33     8.81     0  02:19        1.17
  WS02006247           JUNCTION     0.61     1.28     8.78     0  02:19        1.17
  WS02006248           JUNCTION     0.57     1.10     8.69     0  01:20        1.09
  WS02006249           JUNCTION     0.60     1.09     8.69     0  01:20        1.09
  WS02006251           JUNCTION     0.61     1.48     9.15     0  02:03        1.14
  WS02006252           JUNCTION     0.42     1.50     9.74     0  00:00        0.79
  WS02006256           JUNCTION     1.07     2.35     9.28     0  00:00        2.35
  WSF200               JUNCTION     0.20     0.29     5.52     0  01:58        0.29
  YS02001580           JUNCTION     0.21     1.05     9.59     0  01:05        1.05
  YS02001583           JUNCTION     0.25     1.14     9.64     0  01:05        0.82
  YS02001586           JUNCTION     0.35     1.13     9.30     0  01:04        1.13
  YS02001590           JUNCTION     0.47     1.40     9.26     0  01:04        1.40
  YS02001593           JUNCTION     0.40     1.44     9.31     0  01:04        1.28
  YS02001596           JUNCTION     0.52     1.76     9.18     0  01:04        1.67
  YS02001600           JUNCTION     0.59     1.87     9.00     0  01:04        1.87
  YS02001601           JUNCTION     0.77     2.06     8.90     0  01:04        2.06
  YS02001602           JUNCTION     0.67     1.87     8.77     0  01:06        1.87
  YS02001605           JUNCTION     0.64     1.78     8.68     0  01:06        1.78
  YS02001607           JUNCTION     0.63     1.68     8.53     0  01:06        1.68
  YS02001610           JUNCTION     0.67     1.68     8.48     0  01:06        1.68
  YS02001613           JUNCTION     0.64     1.70     8.54     0  01:06        1.68
  YS02001616           JUNCTION     0.57     1.61     8.52     0  01:06        1.61
  YS02001619           JUNCTION     0.55     1.61     8.54     0  01:06        1.61
  YS02001622           JUNCTION     0.54     1.62     8.52     0  01:50        1.62
  YS02001625           JUNCTION     0.80     1.78     8.38     0  01:06        1.78
  YS02001629           JUNCTION     0.68     1.85     8.40     0  01:05        1.85
  YS02001633           JUNCTION     0.78     2.08     8.53     0  01:06        2.08
  YS02001641           JUNCTION     0.77     2.05     8.48     0  01:08        2.05
  YS02001644           JUNCTION     0.77     1.92     8.35     0  01:06        1.92
  YS02001647           JUNCTION     0.58     1.84     8.45     0  01:07        1.82
  YS02001649           JUNCTION     0.67     2.05     8.44     0  01:07        2.05
  YS02001652           JUNCTION     0.56     2.16     8.76     0  01:06        2.16
  YS02001655           JUNCTION     0.47     2.20     9.05     0  01:07        2.20
  YS02001658           JUNCTION     0.38     2.30     9.44     0  01:08        2.30
  YS02001661           JUNCTION     0.35     2.00     9.40     0  01:08        2.00
  YS02001664           JUNCTION     0.15     1.46     9.38     0  01:08        0.88
  YS02001745           JUNCTION     0.23     2.16     9.68     0  01:07        0.94
  YS02001748           JUNCTION     0.37     2.27     9.35     0  01:07        1.36
  YS02001751           JUNCTION     0.44     2.20     9.08     0  01:07        1.57
  YS02001754           JUNCTION     0.53     2.20     8.81     0  01:07        1.85
  YS02001757           JUNCTION     0.72     2.21     8.47     0  01:07        2.21
  YS02001759           JUNCTION     0.66     2.21     8.57     0  01:07        2.21
  YS02001762           JUNCTION     0.64     2.15     8.55     0  01:07        2.15
  YS02001765           JUNCTION     0.62     2.10     8.55     0  01:06        2.10
  YS02001767           JUNCTION     0.61     2.03     8.52     0  01:06        2.03
  YS02001770           JUNCTION     0.62     1.95     8.44     0  01:06        1.95
  YS02001774           JUNCTION     0.68     2.04     8.46     0  02:42        2.04
  YS02001779           JUNCTION     0.51     1.68     8.37     0  01:06        1.68
  YS02001783           JUNCTION     0.39     1.36     7.50     0  01:06        1.25
  YS02001784           JUNCTION     0.38     1.22     7.29     0  01:06        1.17
  YS02001786           JUNCTION     0.31     1.04     7.07     0  01:06        0.87
  YS02001788           JUNCTION     0.22     0.66     6.64     0  01:06        0.62
  YS02001790           JUNCTION     0.25     0.73     6.37     0  01:16        0.73
  YS02001791           JUNCTION     0.15     0.45     5.92     0  01:06        0.44
  YS02001793           JUNCTION     0.08     0.30     5.14     0  02:30        0.28
  YS02001882           JUNCTION     0.52     1.83     8.55     0  01:05        1.76
  YS02001884           JUNCTION     0.62     1.93     8.55     0  01:05        1.86
  YS02001887           JUNCTION     0.70     2.00     8.54     0  01:08        2.00
  YS02001890           JUNCTION     0.72     1.81     8.32     0  01:05        1.81
  YS02001895           JUNCTION     0.49     1.75     8.50     0  01:05        1.67
  YS02001898           JUNCTION     0.49     1.77     8.51     0  01:05        1.62
  YS02001901           JUNCTION     0.61     1.82     8.43     0  01:05        1.72
  YS02001904           JUNCTION     0.59     1.67     8.30     0  01:50        1.67
  YS02001907           JUNCTION     0.91     1.96     8.25     0  01:06        1.96
  YS02001910           JUNCTION     0.74     2.10     8.61     0  01:08        2.10
  YS02001915           JUNCTION     0.56     2.00     8.72     0  01:06        2.00
  YS02001918           JUNCTION     0.41     1.81     8.88     0  01:06        1.73
  YS02001920           JUNCTION     0.49     2.14     9.15     0  01:06        1.98
  YS02001923           JUNCTION     0.35     2.03     9.29     0  01:06        2.03
  YS02001926           JUNCTION     0.34     1.90     9.35     0  01:06        1.86
  YS02001929           JUNCTION     0.24     1.78     9.47     0  01:06        1.78
  YS02006553           JUNCTION     0.91     2.16     8.44     0  01:08        2.16
  YS02006556           JUNCTION     0.89     2.27     8.58     0  01:08        2.27
  YS02006558           JUNCTION     0.93     2.28     8.55     0  01:08        2.28
  YS02006561           JUNCTION     0.27     1.08     7.74     0  01:06        0.90
  YS02163301           JUNCTION     0.72     2.03     8.55     0  01:06        2.03
  YS02163601           JUNCTION     0.82     2.08     8.48     0  01:06        2.08
  YS02164001           JUNCTION     0.76     2.01     8.47     0  01:06        1.99
  CC-1                 OUTFALL      0.00     0.00     0.00     0  00:00        0.00
  CC-2                 OUTFALL      0.00     0.00     0.00     0  00:00        0.00
  JK-1                 OUTFALL      0.00     0.00     0.00     0  00:00        0.00
  JK-2                 OUTFALL      0.00     0.00     0.00     0  00:00        0.00
  WSC                  OUTFALL      0.21     0.30     0.97     0  02:00        0.30
  CC-storage           STORAGE      1.19     2.30     7.80     0  02:36        2.30
  JK-storage           STORAGE      2.80     4.24     5.04     0  02:50        4.21
  
  
  *******************
  Node Inflow Summary
  *******************
  
  -------------------------------------------------------------------------------------------------
                                  Maximum  Maximum                  Lateral       Total        Flow
                                  Lateral    Total  Time of Max      Inflow      Inflow     Balance
                                   Inflow   Inflow   Occurrence      Volume      Volume       Error
  Node                 Type           LPS      LPS  days hr:min    10^6 ltr    10^6 ltr     Percent
  -------------------------------------------------------------------------------------------------
  WS02003060           JUNCTION     16.53   555.96     0  01:58       0.476        7.84       0.031
  WS02003066           JUNCTION      0.00   539.27     0  01:57           0        7.37       0.020
  WS02003067           JUNCTION      0.00   539.25     0  01:57           0        7.37       0.058
  WS02003069           JUNCTION      0.32   556.04     0  01:58     0.00922        7.85       0.054
  WS02003072           JUNCTION      0.00   555.72     0  01:59           0        7.84       0.095
  WS02003073           JUNCTION      1.82   557.38     0  01:59      0.0524        7.89       0.079
  WS02004401           JUNCTION      0.00   540.19     0  02:57           0        7.46       0.137
  WS02004402           JUNCTION      0.00   544.72     0  02:57           0        7.45       0.139
  WS02004403           JUNCTION      0.00   541.77     0  02:58           0        7.44       0.135
  WS02004404           JUNCTION      0.16   562.06     0  01:55     0.00467        7.44       0.077
  WS02004405           JUNCTION      0.04   608.01     0  03:03      0.0011        7.43       0.093
  WS02004406           JUNCTION      0.00   546.18     0  03:05           0        7.43       0.279
  WS02004407           JUNCTION      0.00   541.19     0  02:56           0        7.41       0.016
  WS02004409           JUNCTION      0.00   540.67     0  02:56           0         7.4       0.038
  WS02004410           JUNCTION      0.00   540.19     0  01:56           0         7.4       0.061
  WS02004411           JUNCTION      0.00   539.77     0  01:56           0         7.4       0.078
  WS02004412           JUNCTION      0.00   539.62     0  01:57           0        7.39       0.104
  WS02004413           JUNCTION      0.00   539.60     0  01:57           0        7.38       0.183
  WS02006109           JUNCTION      1.23   562.66     0  03:30      0.0354        7.51       0.114
  WS02006110           JUNCTION      0.00   564.21     0  03:30           0         7.5       0.092
  WS02006111           JUNCTION      0.00   561.08     0  01:22           0        7.49       0.009
  WS02006112           JUNCTION      0.00   545.64     0  03:27           0        7.49       0.236
  WS02006113           JUNCTION      0.00   573.75     0  02:31           0         7.5       0.026
  WS02006115           JUNCTION      0.00   552.43     0  02:31           0        7.48       0.088
  WS02006116           JUNCTION      0.00   541.33     0  02:58           0        7.47       0.070
  WS02006228           JUNCTION      0.00   559.13     0  03:30           0        7.48       0.050
  WS02006229           JUNCTION      0.00   559.68     0  03:30           0        7.48       0.064
  WS02006230           JUNCTION     10.28   590.58     0  02:55       0.296        7.49       0.052
  WS02006231           JUNCTION      0.00   581.45     0  02:19           0        7.19      -0.036
  WS02006232           JUNCTION      0.00   580.38     0  02:19           0         7.2       0.132
  WS02006234           JUNCTION      0.00   574.41     0  02:19           0        7.19      -0.102
  WS02006235           JUNCTION      0.00   579.58     0  01:14           0        7.24       0.097
  WS02006238           JUNCTION      0.00   423.24     0  03:05           0        6.01      -0.093
  WS02006239           JUNCTION      0.00   422.64     0  03:28           0        5.98      -0.068
  WS02006240           JUNCTION      0.00   420.32     0  03:32           0        5.96      -0.011
  WS02006242           JUNCTION      0.00   420.58     0  03:32           0        5.94      -0.016
  WS02006243           JUNCTION      0.00   420.72     0  03:32           0        5.92      -0.133
  WS02006245           JUNCTION      0.00   419.77     0  03:05           0        5.94       0.230
  WS02006247           JUNCTION      0.00   419.81     0  03:46           0        5.94       0.020
  WS02006248           JUNCTION      0.00   425.63     0  01:16           0        5.94       0.028
  WS02006249           JUNCTION      0.00   472.25     0  05:25           0        6.33       0.251
  WS02006251           JUNCTION      0.08   406.92     0  01:20     0.00222        6.33      -0.004
  WS02006252           JUNCTION      0.00   400.00     0  00:00           0        6.32      -0.127
  WS02006256           JUNCTION      0.00   300.00     0  00:00           0        1.89      -0.545
  WSF200               JUNCTION      0.00   539.33     0  01:58           0        7.36       0.007
  YS02001580           JUNCTION      0.00   349.39     0  01:05           0      0.0055     -11.114
  YS02001583           JUNCTION      0.00   354.76     0  01:04           0       0.016     -14.242
  YS02001586           JUNCTION   1452.71  1452.71     0  01:34        6.73        6.75       0.025
  YS02001590           JUNCTION      0.00   360.33     0  01:04           0         2.7      -0.043
  YS02001593           JUNCTION      0.00   368.38     0  01:04           0         2.7       0.016
  YS02001596           JUNCTION      0.00   318.08     0  01:50           0         2.7      -0.029
  YS02001600           JUNCTION      0.00   318.29     0  01:50           0        2.72       0.029
  YS02001601           JUNCTION   2053.47  2371.11     0  01:31        8.82        11.5       0.010
  YS02001602           JUNCTION      0.00   637.71     0  01:04           0        3.61       0.017
  YS02001605           JUNCTION      0.00   638.05     0  01:04           0        3.16       0.020
  YS02001607           JUNCTION      0.00   637.64     0  01:04           0        3.16       0.031
  YS02001610           JUNCTION      0.00   956.74     0  01:50           0        5.68       0.034
  YS02001613           JUNCTION      0.00   621.23     0  01:50           0        3.51       0.016
  YS02001616           JUNCTION      0.00   627.01     0  01:46           0        3.53      -0.031
  YS02001619           JUNCTION   2445.99  2445.99     0  01:33        10.9        11.8      -0.005
  YS02001622           JUNCTION      0.00  1147.70     0  01:05           0        7.98      -0.020
  YS02001625           JUNCTION      0.00  1505.51     0  01:55           0        9.84       0.045
  YS02001629           JUNCTION      0.00   955.09     0  01:05           0        4.04       0.048
  YS02001633           JUNCTION   1529.43  1529.43     0  01:31        6.53           8       0.041
  YS02001641           JUNCTION      0.00  1147.64     0  01:06           0        5.43       0.040
  YS02001644           JUNCTION   1334.48  2481.26     0  01:33        5.69        11.8       0.018
  YS02001647           JUNCTION      0.00  1862.15     0  01:06           0        4.73       0.011
  YS02001649           JUNCTION      0.00  2092.74     0  01:06           0        9.41       0.006
  YS02001652           JUNCTION      0.00  1254.80     0  01:31           0        5.34      -0.101
  YS02001655           JUNCTION      0.15  1254.49     0  01:31     0.00443        5.34       0.059
  YS02001658           JUNCTION      0.00  1256.18     0  01:30           0        5.33      -0.014
  YS02001661           JUNCTION      0.00  1254.71     0  01:31           0        5.32      -0.309
  YS02001664           JUNCTION   1254.01  1254.01     0  01:31        5.32        5.32       0.022
  YS02001745           JUNCTION    733.01   733.01     0  01:31        3.12        3.12       0.072
  YS02001748           JUNCTION      0.04   902.20     0  01:07      0.0013        3.12      -0.111
  YS02001751           JUNCTION      0.01  1070.32     0  01:06    0.000317        3.13       0.040
  YS02001754           JUNCTION      0.26   850.14     0  01:06     0.00749        3.14      -0.263
  YS02001757           JUNCTION      0.00  3624.18     0  01:08           0        19.3       0.038
  YS02001759           JUNCTION   1022.25  1530.58     0  01:07        4.34        7.38      -0.007
  YS02001762           JUNCTION      0.00   759.62     0  01:07           0        3.04      -0.004
  YS02001765           JUNCTION      0.00   761.21     0  01:07           0        3.03      -0.006
  YS02001767           JUNCTION      0.54   789.15     0  01:06      0.0154        3.03      -0.015
  YS02001770           JUNCTION   1528.63  1528.63     0  01:31        6.52        6.57      -0.015
  YS02001774           JUNCTION      0.00   852.12     0  01:22           0        3.09       0.042
  YS02001779           JUNCTION      0.01   851.76     0  01:38    0.000144        3.05      -0.042
  YS02001783           JUNCTION      0.00  1171.28     0  01:08           0           9       0.003
  YS02001784           JUNCTION      1.06  1174.55     0  01:08      0.0305        9.03       0.005
  YS02001786           JUNCTION      0.06  1174.38     0  01:08     0.00162        9.03       0.007
  YS02001788           JUNCTION      0.07  1176.97     0  01:08     0.00204        9.04       0.003
  YS02001790           JUNCTION      0.15  1211.74     0  01:06     0.00446        9.04       0.048
  YS02001791           JUNCTION      0.00  1298.61     0  01:17           0        9.04      -0.068
  YS02001793           JUNCTION      0.00  1285.81     0  01:06           0        9.04       0.004
  YS02001882           JUNCTION      0.00   183.36     0  01:05           0      0.0132       3.987
  YS02001884           JUNCTION      0.00   348.52     0  01:05           0      0.0502       6.489
  YS02001887           JUNCTION   1039.90  1042.19     0  01:31        4.44        4.47       0.086
  YS02001890           JUNCTION      0.00  1042.36     0  01:31           0        4.43       0.120
  YS02001895           JUNCTION      0.00   579.05     0  01:06           0        3.17       0.123
  YS02001898           JUNCTION      0.00   574.08     0  01:06           0        3.16      -0.087
  YS02001901           JUNCTION      0.00   560.47     0  01:06           0        3.18       0.125
  YS02001904           JUNCTION      0.00   558.53     0  01:06           0        3.21       0.089
  YS02001907           JUNCTION      0.00  2881.42     0  01:30           0        13.2       0.139
  YS02001910           JUNCTION      0.00  1993.15     0  01:22           0        9.35       0.080
  YS02001915           JUNCTION   1455.92  2221.85     0  01:31        6.22        9.64       0.011
  YS02001918           JUNCTION      0.00  1071.17     0  01:06           0        3.46      -0.014
  YS02001920           JUNCTION      2.87  1017.09     0  01:06      0.0827        3.42      -0.104
  YS02001923           JUNCTION      0.04  1589.91     0  01:06     0.00109        3.32      -0.087
  YS02001926           JUNCTION      0.05  1560.93     0  01:06      0.0015        3.29      -0.048
  YS02001929           JUNCTION    762.42  1171.92     0  01:06        3.27        3.28      -0.078
  YS02006553           JUNCTION      0.00   802.93     0  03:01           0        3.75       0.323
  YS02006556           JUNCTION      0.00   803.76     0  03:01           0        3.78       0.242
  YS02006558           JUNCTION   1534.20  1534.20     0  01:31        6.55        9.67       0.036
  YS02006561           JUNCTION      0.00  1199.35     0  01:06           0           9      -0.001
  YS02163301           JUNCTION      0.00   810.20     0  01:30           0        4.05       0.038
  YS02163601           JUNCTION      0.11  1152.98     0  01:06     0.00317        5.39       0.091
  YS02164001           JUNCTION      0.00  1151.79     0  01:06           0         5.4       0.043
  CC-1                 OUTFALL       0.00   683.00     0  00:00           0        7.07       0.000
  CC-2                 OUTFALL       0.00   683.00     0  00:00           0        6.69       0.000
  JK-1                 OUTFALL       0.00  1000.00     0  00:00           0        4.73       0.000
  JK-2                 OUTFALL       0.00  1000.00     0  00:00           0        2.37       0.000
  WSC                  OUTFALL       0.00   557.18     0  02:00           0        7.88       0.000
  CC-storage           STORAGE       0.00  3624.99     0  01:08           0        21.5      -0.157
  JK-storage           STORAGE       0.00  1304.76     0  01:49           0        9.19       0.078
  
  
  **********************
  Node Surcharge Summary
  **********************
  
  Surcharging occurs when water rises above the top of the highest conduit.
  ---------------------------------------------------------------------
                                               Max. Height   Min. Depth
                                   Hours       Above Crown    Below Rim
  Node                 Type      Surcharged         Meters       Meters
  ---------------------------------------------------------------------
  WS02004404           JUNCTION        0.06          0.038        2.742
  WS02006109           JUNCTION        3.42          0.473        1.347
  WS02006110           JUNCTION        1.25          0.367        1.483
  WS02006112           JUNCTION        1.55          0.088        1.592
  WS02006228           JUNCTION        3.40          0.503        1.697
  WS02006229           JUNCTION        3.43          0.556        1.894
  WS02006230           JUNCTION        1.29          0.526        1.044
  WS02006231           JUNCTION        1.50          0.549        0.981
  WS02006232           JUNCTION        3.54          0.700        0.780
  WS02006234           JUNCTION        1.99          1.127        0.113
  WS02006235           JUNCTION        3.36          0.801        0.489
  WS02006238           JUNCTION        3.47          0.843        0.587
  WS02006239           JUNCTION        3.40          0.773        0.517
  WS02006240           JUNCTION        3.45          0.760        0.630
  WS02006242           JUNCTION        3.59          0.777        0.043
  WS02006243           JUNCTION        3.48          0.681        0.089
  WS02006245           JUNCTION        3.48          0.619        0.231
  WS02006247           JUNCTION        3.51          0.571        0.189
  WS02006248           JUNCTION        3.46          0.380        0.000
  WS02006249           JUNCTION        3.51          0.390        0.000
  WS02006251           JUNCTION        1.61          0.452        0.728
  WS02006252           JUNCTION        3.88          1.100        0.000
  WS02006256           JUNCTION        7.32          2.050        0.000
  YS02001580           JUNCTION        2.02          0.450        0.000
  YS02001583           JUNCTION        2.03          0.500        0.000
  YS02001586           JUNCTION        2.13          0.510        0.000
  YS02001590           JUNCTION        2.17          0.750        0.000
  YS02001593           JUNCTION        2.17          0.823        0.017
  YS02001596           JUNCTION        2.23          1.032        0.038
  YS02001600           JUNCTION        2.32          1.190        0.000
  YS02001601           JUNCTION        2.50          1.440        0.000
  YS02001602           JUNCTION        2.46          1.270        0.000
  YS02001605           JUNCTION        2.44          1.180        0.000
  YS02001607           JUNCTION        2.20          0.680        0.000
  YS02001610           JUNCTION        2.22          0.680        0.000
  YS02001613           JUNCTION        2.20          0.700        0.000
  YS02001616           JUNCTION        2.17          0.610        0.000
  YS02001619           JUNCTION        2.16          0.610        0.000
  YS02001622           JUNCTION        2.17          0.619        0.001
  YS02001625           JUNCTION        2.31          0.780        0.000
  YS02001629           JUNCTION        2.15          0.470        0.000
  YS02001633           JUNCTION        2.36          1.060        0.000
  YS02001641           JUNCTION        2.37          1.046        0.054
  YS02001644           JUNCTION        2.36          0.920        0.000
  YS02001647           JUNCTION        2.25          0.844        0.056
  YS02001649           JUNCTION        2.37          1.050        0.000
  YS02001652           JUNCTION        2.22          1.130        0.000
  YS02001655           JUNCTION        2.09          1.200        0.000
  YS02001658           JUNCTION        1.91          1.300        0.000
  YS02001661           JUNCTION        0.85          0.929        0.461
  YS02001664           JUNCTION        0.01          0.460        0.850
  YS02001745           JUNCTION        0.01          1.161        0.189
  YS02001748           JUNCTION        1.89          1.190        0.000
  YS02001751           JUNCTION        2.05          1.200        0.000
  YS02001754           JUNCTION        2.18          1.150        0.000
  YS02001757           JUNCTION        2.45          1.210        0.000
  YS02001759           JUNCTION        2.38          1.210        0.000
  YS02001762           JUNCTION        2.36          1.150        0.000
  YS02001765           JUNCTION        2.32          1.100        0.000
  YS02001767           JUNCTION        2.29          1.030        0.000
  YS02001770           JUNCTION        2.27          0.920        0.000
  YS02001774           JUNCTION        2.34          1.035        0.015
  YS02001779           JUNCTION        2.17          0.680        0.000
  YS02001783           JUNCTION        1.99          0.563        1.037
  YS02001784           JUNCTION        1.98          0.425        1.065
  YS02001786           JUNCTION        1.92          0.244        1.186
  YS02001882           JUNCTION        1.97          0.830        0.000
  YS02001884           JUNCTION        1.97          0.870        0.000
  YS02001887           JUNCTION        1.99          0.950        0.000
  YS02001890           JUNCTION        2.00          0.760        0.000
  YS02001895           JUNCTION        1.96          0.750        0.000
  YS02001898           JUNCTION        1.95          0.740        0.000
  YS02001901           JUNCTION        1.98          0.817        0.053
  YS02001904           JUNCTION        1.98          0.668        0.182
  YS02001907           JUNCTION        2.07          0.950        0.000
  YS02001910           JUNCTION        2.01          1.100        0.000
  YS02001915           JUNCTION        1.96          1.000        0.000
  YS02001918           JUNCTION        1.92          0.810        0.000
  YS02001920           JUNCTION        1.93          1.140        0.000
  YS02001923           JUNCTION        0.93          0.820        0.000
  YS02001926           JUNCTION        1.04          0.900        0.000
  YS02001929           JUNCTION        0.67          0.780        0.000
  YS02006553           JUNCTION        2.08          1.156        0.034
  YS02006556           JUNCTION        2.04          1.231        0.119
  YS02006558           JUNCTION        2.03          1.183        0.217
  YS02006561           JUNCTION        1.90          0.279        0.871
  YS02163301           JUNCTION        2.34          1.030        0.000
  YS02163601           JUNCTION        2.40          1.080        0.000
  YS02164001           JUNCTION        2.36          1.008        0.092
  
  
  *********************
  Node Flooding Summary
  *********************
  
  Flooding refers to all water that overflows a node, whether it ponds or not.
  --------------------------------------------------------------------------
                                                             Total   Maximum
                                 Maximum   Time of Max       Flood    Ponded
                        Hours       Rate    Occurrence      Volume     Depth
  Node                 Flooded       LPS   days hr:min    10^6 ltr    Meters
  --------------------------------------------------------------------------
  WS02006248              0.01     21.42      0  02:45       0.000     0.000
  WS02006249              1.56     85.84      0  03:31       0.376     0.000
  WS02006252              0.01    245.63      0  00:00       0.000     0.000
  WS02006256              1.75    293.19      0  00:00       0.644     0.000
  YS02001580              0.01    334.73      0  01:05       0.002     0.000
  YS02001583              0.01    264.95      0  01:05       0.001     0.000
  YS02001586              1.97   1135.19      0  01:34       4.039     0.000
  YS02001590              0.01    225.60      0  01:04       0.001     0.000
  YS02001600              0.01     24.88      0  01:04       0.000     0.000
  YS02001601              2.07   1973.18      0  01:31       7.904     0.000
  YS02001602              2.05     62.48      0  01:46       0.451     0.000
  YS02001605              0.01     11.14      0  01:06       0.000     0.000
  YS02001607              0.01    391.49      0  01:06       0.003     0.000
  YS02001610              1.99    956.32      0  01:50       4.703     0.000
  YS02001613              0.01    215.91      0  01:06       0.001     0.000
  YS02001616              0.17    242.84      0  01:06       0.005     0.000
  YS02001619              0.80    776.68      0  01:33       1.327     0.000
  YS02001625              2.02   1505.27      0  01:55       8.379     0.000
  YS02001629              0.87    358.15      0  01:31       0.726     0.000
  YS02001633              0.01      5.71      0  01:06       0.000     0.000
  YS02001644              1.87   2480.92      0  01:33       7.658     0.000
  YS02001649              0.01    138.52      0  01:07       0.002     0.000
  YS02001652              0.01    488.36      0  01:06       0.001     0.000
  YS02001655              0.01    335.44      0  01:07       0.001     0.000
  YS02001658              0.01      2.36      0  01:08       0.000     0.000
  YS02001748              0.01    275.97      0  01:07       0.001     0.000
  YS02001751              0.01     42.55      0  01:07       0.000     0.000
  YS02001754              0.01     59.93      0  01:07       0.000     0.000
  YS02001757              0.01     38.39      0  01:07       0.000     0.000
  YS02001759              0.01     12.35      0  01:07       0.000     0.000
  YS02001762              0.01     25.61      0  01:07       0.000     0.000
  YS02001765              0.01    165.74      0  01:06       0.000     0.000
  YS02001767              0.01     13.63      0  01:06       0.000     0.000
  YS02001770              0.51    407.28      0  01:32       0.478     0.000
  YS02001779              1.51    851.48      0  01:38       3.036     0.000
  YS02001882              0.01     58.75      0  01:05       0.000     0.000
  YS02001884              0.01     25.93      0  01:05       0.000     0.000
  YS02001887              0.01      1.28      0  01:08       0.000     0.000
  YS02001890              1.05    526.32      0  01:31       1.262     0.000
  YS02001895              0.01     63.52      0  01:05       0.000     0.000
  YS02001898              0.01    285.55      0  01:05       0.001     0.000
  YS02001907              1.88   2880.91      0  01:30       9.982     0.000
  YS02001910              0.01      0.50      0  01:08       0.000     0.000
  YS02001915              0.41    229.27      0  01:31       0.237     0.000
  YS02001918              0.01    481.11      0  01:06       0.006     0.000
  YS02001920              0.01    109.69      0  01:06       0.000     0.000
  YS02001923              0.01    925.76      0  01:06       0.002     0.000
  YS02001926              0.01    498.64      0  01:06       0.001     0.000
  YS02001929              0.01    960.27      0  01:06       0.009     0.000
  YS02163301              0.01     39.25      0  01:06       0.000     0.000
  YS02163601              0.01     10.31      0  01:06       0.000     0.000
  CC-storage              0.36     45.61      0  02:37       0.031     0.000
  
  
  **********************
  Storage Volume Summary
  **********************
  
  ------------------------------------------------------------------------------------------------
                         Average    Avg   Evap  Exfil     Maximum    Max    Time of Max    Maximum
                          Volume   Pcnt   Pcnt   Pcnt      Volume   Pcnt     Occurrence    Outflow
  Storage Unit           1000 m³   Full   Loss   Loss     1000 m³   Full    days hr:min        LPS
  ------------------------------------------------------------------------------------------------
  CC-storage               3.307   51.6    0.0    0.0       6.410  100.0       0  02:36    1783.53
  JK-storage               0.141   48.2    0.0    0.0       0.213   73.0       0  02:50    2300.00
  
  
  ***********************
  Outfall Loading Summary
  ***********************
  
  -----------------------------------------------------------
                         Flow       Avg       Max       Total
                         Freq      Flow      Flow      Volume
  Outfall Node           Pcnt       LPS       LPS    10^6 ltr
  -----------------------------------------------------------
  CC-1                  36.12    683.00    683.00       7.069
  CC-2                  34.02    683.00    683.00       6.688
  JK-1                  17.53   1000.00   1000.00       4.727
  JK-2                   8.96   1000.00   1000.00       2.372
  WSC                   99.96    317.15    557.18       7.881
  -----------------------------------------------------------
  System                39.32   3683.15   3919.96      28.738
  
  
  ********************
  Link Flow Summary
  ********************
  
  -----------------------------------------------------------------------------
                                 Maximum  Time of Max   Maximum    Max/    Max/
                                  |Flow|   Occurrence   |Veloc|    Full    Full
  Link                 Type          LPS  days hr:min     m/sec    Flow   Depth
  -----------------------------------------------------------------------------
  1                    CONDUIT    557.18     0  02:00      2.83    0.19    0.30
  WS02003060WS02003069 CONDUIT    555.72     0  01:58      1.64    0.22    0.34
  WS02003066WSF200     CONDUIT    539.33     0  01:58      2.85    0.09    0.22
  WS02003067WS02003066 CONDUIT    539.27     0  01:57      1.21    0.17    0.42
  WS02003069WS02003072 CONDUIT    555.72     0  01:59      1.37    0.27    0.39
  WS02003072WS02003073 CONDUIT    555.56     0  01:59      1.44    1.20    0.37
  WS02004401WS02004402 CONDUIT    544.72     0  02:57      0.98    0.65    0.89
  WS02004402WS02004403 CONDUIT    541.77     0  02:58      0.97    0.78    0.91
  WS02004403WS02004404 CONDUIT    561.90     0  01:55      0.92    0.41    0.96
  WS02004404WS02004405 CONDUIT    607.98     0  03:03      1.08    5.96    0.98
  WS02004405WS02004406 CONDUIT    546.18     0  03:05      0.99    1.08    0.96
  WS02004406WS02004407 CONDUIT    541.19     0  02:56      1.04    0.24    0.63
  WS02004407WS02004409 CONDUIT    540.67     0  02:56      1.57    0.19    0.48
  WS02004409WS02004410 CONDUIT    540.19     0  01:56      1.04    0.70    0.68
  WS02004410WS02004411 CONDUIT    539.77     0  01:56      0.95    0.74    0.69
  WS02004411WS02004412 CONDUIT    539.62     0  01:57      0.93    0.77    0.70
  WS02004412WS02004413 CONDUIT    539.60     0  01:57      0.82    0.36    0.78
  WS02004413WS02003067 CONDUIT    539.25     0  01:57      1.11    0.23    0.59
  WS02006109WS02006110 CONDUIT    564.21     0  03:30      1.12    1.08    1.00
  WS02006110WS02006113 CONDUIT    573.75     0  02:31      1.38    0.52    0.79
  WS02006111WS02006112 CONDUIT    545.64     0  03:27      1.81    0.26    0.67
  WS02006112WS02006115 CONDUIT    552.43     0  02:31      0.83    0.33    0.88
  WS02006113WS02006111 CONDUIT    561.08     0  01:22      2.47    0.67    0.46
  WS02006115WS02006116 CONDUIT    541.33     0  02:58      0.97    0.69    0.79
  WS02006116WS02004401 CONDUIT    540.19     0  02:57      0.98    0.74    0.87
  WS02006228WS02006109 CONDUIT    561.43     0  03:30      1.12    2.45    1.00
  WS02006229WS02006228 CONDUIT    559.13     0  03:30      1.14    1.85    1.00
  WS02006230WS02006229 CONDUIT    559.68     0  03:30      1.45   12.46    1.00
  WS02006231WS02006230 CONDUIT    580.30     0  02:55      1.57    8.80    1.00
  WS02006232WS02006231 CONDUIT    581.45     0  02:19      1.52    1.22    1.00
  WS02006234WS02006232 CONDUIT    580.38     0  02:19      1.51    1.17    1.00
  WS02006235WS02006234 CONDUIT    574.41     0  02:19      1.58    6.06    1.00
  WS02006238WS02006235 CONDUIT    424.26     0  03:28      1.53    0.95    1.00
  WS02006239WS02006238 CONDUIT    423.24     0  03:05      1.10    1.35    1.00
  WS02006240WS02006239 CONDUIT    422.64     0  03:28      1.24    1.33    1.00
  WS02006242WS02006240 CONDUIT    420.32     0  03:32      1.13    1.67    1.00
  WS02006243WS02006242 CONDUIT    420.58     0  03:32      1.40    0.90    1.00
  WS02006245WS02006243 CONDUIT    420.72     0  03:32      1.45    1.24    1.00
  WS02006247WS02006245 CONDUIT    419.77     0  03:05      1.43    3.33    1.00
  WS02006248WS02006247 CONDUIT    419.81     0  03:46      1.44    0.91    1.00
  WS02006249WS02006248 CONDUIT    425.63     0  01:16      1.40    2.33    1.00
  WS02006251WS02006249 CONDUIT    472.25     0  05:25      1.99    1.36    1.00
  WS02006252WS02006251 CONDUIT    406.85     0  01:20     24.61    1.49    1.00
  WS02006256WS02006235 CONDUIT    288.91     0  00:00      4.23    3.06    1.00
  WSF200WS02003060     CONDUIT    539.43     0  01:58      2.06    0.12    0.28
  YS02001580YS02001583 CONDUIT    349.39     0  01:05      1.32    1.35    1.00
  YS02001583YS02001586 CONDUIT    354.76     0  01:04      1.51    0.54    1.00
  YS02001586YS02001590 CONDUIT    320.77     0  01:46      1.48    0.56    1.00
  YS02001590YS02001593 CONDUIT    320.66     0  01:46      1.13    2.01    1.00
  YS02001593YS02001596 CONDUIT    318.08     0  01:50      1.64    0.50    1.00
  YS02001596YS02001600 CONDUIT    318.29     0  01:50      1.22    0.62    1.00
  YS02001600YS02001601 CONDUIT    318.89     0  01:50      1.13    0.55    1.00
  YS02001601YS02001602 CONDUIT    637.71     0  01:04      2.26    2.30    1.00
  YS02001602YS02001605 CONDUIT    638.05     0  01:04      2.26   13.50    1.00
  YS02001605YS02001607 CONDUIT    637.64     0  01:04      2.26    3.50    1.00
  YS02001607YS02001610 CONDUIT    722.00     0  01:05      1.10    0.69    1.00
  YS02001610YS02001613 CONDUIT    620.62     0  01:50      0.93    0.72    1.00
  YS02001613YS02001616 CONDUIT    621.23     0  01:50      0.99    0.53    1.00
  YS02001616YS02001619 CONDUIT    627.01     0  01:46      1.00    1.09    1.00
  YS02001619YS02001622 CONDUIT   1147.70     0  01:05      2.36    1.69    1.00
  YS02001622YS02001625 CONDUIT   1053.72     0  01:55      1.39    0.56    1.00
  YS02001625YS02001629 CONDUIT    955.09     0  01:05      1.36    0.45    1.00
  YS02001629YS02163301 CONDUIT    810.19     0  01:30      1.03    1.00    1.00
  YS02001633YS02163601 CONDUIT   1152.87     0  01:06      1.47    1.21    1.00
  YS02001641YS02001644 CONDUIT   1153.54     0  01:06      1.47    3.73    1.00
  YS02001644YS02001647 CONDUIT   1862.15     0  01:06      2.37    1.09    1.00
  YS02001647YS02001649 CONDUIT   1867.14     0  01:06      2.38    0.99    1.00
  YS02001649YS02001757 CONDUIT   1991.92     0  01:06      2.54    1.21    1.00
  YS02001652YS02001649 CONDUIT   1254.90     0  01:31      1.80    0.62    1.00
  YS02001655YS02001652 CONDUIT   1254.80     0  01:31      2.20    0.61    1.00
  YS02001658YS02001655 CONDUIT   1254.34     0  01:31      2.39    0.53    1.00
  YS02001661YS02001658 CONDUIT   1256.18     0  01:30      2.68    0.49    1.00
  YS02001664YS02001661 CONDUIT   1254.71     0  01:31      2.68    0.39    1.00
  YS02001745YS02001748 CONDUIT    733.82     0  01:30      2.59    0.28    1.00
  YS02001748YS02001751 CONDUIT    735.39     0  01:28      2.10    0.37    1.00
  YS02001751YS02001754 CONDUIT    733.79     0  01:30      2.08    0.35    1.00
  YS02001754YS02001757 CONDUIT    733.96     0  01:30      1.50    0.30    1.00
  YS02001757CaochengTiaoxuchi CONDUIT   3624.99     0  01:08      5.21    1.57    1.00
  YS02001759YS02001757 CONDUIT   1545.86     0  01:07      1.97    1.10    1.00
  YS02001762YS02001759 CONDUIT    765.15     0  01:07      0.97    0.88    1.00
  YS02001765YS02001762 CONDUIT    759.62     0  01:07      0.97    0.71    1.00
  YS02001767YS02001765 CONDUIT    761.21     0  01:07      0.98    0.96    1.00
  YS02001770YS02001767 CONDUIT    788.61     0  01:06      1.12    3.12    1.00
  YS02001774YS02001770 CONDUIT    852.12     0  01:22      1.08    0.54    1.00
  YS02001779YS02001774 CONDUIT    851.76     0  01:38      1.08    0.43    1.00
  YS02001783YS02001784 CONDUIT   1173.49     0  01:08      2.33    1.62    1.00
  YS02001784YS02001785 CONDUIT   1174.32     0  01:08      2.34    2.73    1.00
  YS02001786YS02001788 CONDUIT   1176.90     0  01:08      2.51    2.27    0.91
  YS02001788YS02001790 CONDUIT   1211.58     0  01:06      2.73    0.89    0.84
  YS02001790YS02001791 CONDUIT   1298.61     0  01:17      3.44    1.41    0.72
  YS02001791YS02001793 CONDUIT   1285.81     0  01:06      6.83    0.55    0.45
  YS02001793JiankangQianchi CONDUIT   1304.76     0  01:49      2.60    0.10    0.65
  YS02001882YS02001884 CONDUIT    183.36     0  01:05      0.65    0.21    1.00
  YS02001884YS02001887 CONDUIT    348.52     0  01:05      0.65    0.46    1.00
  YS02001887YS02001890 CONDUIT   1042.36     0  01:31      1.33    1.78    1.00
  YS02001890YS02001895 CONDUIT    579.05     0  01:06      0.89    0.27    1.00
  YS02001895YS02001898 CONDUIT    574.08     0  01:06      0.97    1.00    1.00
  YS02001898YS02001901 CONDUIT    560.47     0  01:06      0.72    0.36    1.00
  YS02001901YS02001904 CONDUIT    558.53     0  01:06      1.07    0.87    1.00
  YS02001904YS02001907 CONDUIT    560.66     0  01:06      0.76    0.20    1.00
  YS02001907YS02006553 CONDUIT    802.93     0  03:01      0.89    0.94    1.00
  YS02001910YS02001907 CONDUIT   1993.05     0  01:22      2.54    1.12    1.00
  YS02001915YS02001910 CONDUIT   1993.15     0  01:22      2.54    0.99    1.00
  YS02001918YS02001915 CONDUIT   1071.17     0  01:06      1.37    0.59    1.00
  YS02001920YS02001918 CONDUIT   1014.22     0  01:06      1.29    0.98    1.00
  YS02001923YS02001920 CONDUIT   1174.27     0  01:06      1.58    0.53    1.00
  YS02001926YS02001923 CONDUIT   1234.52     0  01:06      1.71    1.76    1.00
  YS02001929YS02001926 CONDUIT    834.55     0  01:06      1.35    0.40    1.00
  YS02006553YS02006556 CONDUIT    803.76     0  03:01      1.02    0.69    1.00
  YS02006556YS02006558 CONDUIT    806.15     0  03:01      1.03    0.64    1.00
  YS02006558YS02006561 CONDUIT   1199.35     0  01:06      4.26    2.65    1.00
  YS02006561YS02001783 CONDUIT   1171.28     0  01:08      2.33    0.61    1.00
  YS02163301YS02001633 CONDUIT    810.20     0  01:30      1.03    0.76    1.00
  YS02163601YS02164001 CONDUIT   1151.79     0  01:06      1.47    1.02    1.00
  YS02164001YS02001641 CONDUIT   1147.64     0  01:06      1.46    1.57    1.00
  CC-R1                PUMP       683.00     0  00:00              1.00
  CC-R2                PUMP       683.00     0  00:00              1.00
  CC-S1                PUMP       200.00     0  00:00              1.00
  CC-S2                PUMP       200.00     0  00:00              1.00
  JK-R1                PUMP      1000.00     0  00:00              1.00
  JK-R2                PUMP      1000.00     0  00:00              1.00
  JK-S                 PUMP       300.00     0  00:00              1.00
  
  
  ***************************
  Flow Classification Summary
  ***************************
  
  -------------------------------------------------------------------------------------
                      Adjusted    ---------- Fraction of Time in Flow Class ---------- 
                       /Actual         Up    Down  Sub   Sup   Up    Down  Norm  Inlet 
  Conduit               Length    Dry  Dry   Dry   Crit  Crit  Crit  Crit  Ltd   Ctrl  
  -------------------------------------------------------------------------------------
  1                       1.00   0.00  0.00  0.00  0.00  1.00  0.00  0.00  0.35  0.00
  WS02003060WS02003069    1.00   0.00  0.00  0.00  0.98  0.02  0.00  0.00  0.53  0.00
  WS02003066WSF200        1.00   0.13  0.00  0.00  0.00  0.87  0.00  0.00  0.69  0.00
  WS02003067WS02003066    1.00   0.10  0.02  0.00  0.88  0.00  0.00  0.00  0.00  0.00
  WS02003069WS02003072    1.00   0.00  0.00  0.00  0.99  0.01  0.00  0.00  0.54  0.00
  WS02003072WS02003073    1.00   0.00  0.00  0.00  0.00  0.00  0.00  1.00  0.00  0.00
  WS02004401WS02004402    1.00   0.02  0.00  0.00  0.98  0.00  0.00  0.00  0.00  0.00
  WS02004402WS02004403    1.00   0.02  0.00  0.00  0.97  0.00  0.00  0.00  0.00  0.00
  WS02004403WS02004404    1.00   0.00  0.03  0.00  0.97  0.00  0.00  0.00  0.00  0.00
  WS02004404WS02004405    1.00   0.00  0.00  0.00  1.00  0.00  0.00  0.00  0.01  0.00
  WS02004405WS02004406    1.00   0.00  0.00  0.00  1.00  0.00  0.00  0.00  0.00  0.00
  WS02004406WS02004407    1.00   0.00  0.05  0.00  0.95  0.00  0.00  0.00  0.00  0.00
  WS02004407WS02004409    1.00   0.05  0.00  0.00  0.94  0.01  0.00  0.00  0.94  0.00
  WS02004409WS02004410    1.00   0.05  0.00  0.00  0.95  0.00  0.00  0.00  0.03  0.00
  WS02004410WS02004411    1.00   0.05  0.00  0.00  0.95  0.00  0.00  0.00  0.01  0.00
  WS02004411WS02004412    1.00   0.05  0.00  0.00  0.95  0.00  0.00  0.00  0.00  0.00
  WS02004412WS02004413    1.00   0.05  0.00  0.00  0.94  0.00  0.00  0.00  0.01  0.00
  WS02004413WS02003067    1.00   0.06  0.04  0.00  0.00  0.00  0.90  0.00  0.00  0.00
  WS02006109WS02006110    1.00   0.00  0.01  0.00  0.98  0.00  0.01  0.00  0.00  0.00
  WS02006110WS02006113    1.00   0.01  0.01  0.00  0.98  0.00  0.00  0.00  0.00  0.00
  WS02006111WS02006112    1.00   0.02  0.00  0.00  0.98  0.00  0.00  0.00  0.98  0.00
  WS02006112WS02006115    1.00   0.02  0.00  0.00  0.97  0.00  0.00  0.00  0.00  0.00
  WS02006113WS02006111    1.00   0.02  0.00  0.00  0.00  0.98  0.00  0.00  0.19  0.00
  WS02006115WS02006116    1.00   0.02  0.00  0.00  0.97  0.00  0.00  0.01  0.00  0.00
  WS02006116WS02004401    1.00   0.02  0.00  0.00  0.98  0.00  0.00  0.00  0.00  0.00
  WS02006228WS02006109    1.00   0.00  0.00  0.00  1.00  0.00  0.00  0.00  0.00  0.00
  WS02006229WS02006228    1.00   0.00  0.00  0.00  0.99  0.00  0.00  0.01  0.00  0.00
  WS02006230WS02006229    1.00   0.00  0.00  0.00  0.99  0.00  0.00  0.01  0.01  0.00
  WS02006231WS02006230    1.00   0.00  0.00  0.00  0.46  0.00  0.54  0.00  0.00  0.00
  WS02006232WS02006231    1.00   0.00  0.00  0.00  0.99  0.00  0.01  0.00  0.00  0.00
  WS02006234WS02006232    1.00   0.00  0.00  0.00  1.00  0.00  0.00  0.00  0.03  0.00
  WS02006235WS02006234    1.00   0.00  0.00  0.00  0.93  0.00  0.07  0.00  0.00  0.00
  WS02006238WS02006235    1.00   0.00  0.00  0.00  1.00  0.00  0.00  0.00  0.00  0.00
  WS02006239WS02006238    1.00   0.00  0.00  0.00  1.00  0.00  0.00  0.00  0.10  0.00
  WS02006240WS02006239    1.00   0.00  0.00  0.00  0.75  0.00  0.00  0.25  0.01  0.00
  WS02006242WS02006240    1.00   0.00  0.00  0.00  1.00  0.00  0.00  0.00  0.00  0.00
  WS02006243WS02006242    1.00   0.00  0.00  0.00  0.99  0.00  0.00  0.00  0.34  0.00
  WS02006245WS02006243    1.00   0.00  0.00  0.00  0.87  0.00  0.00  0.13  0.01  0.00
  WS02006247WS02006245    1.00   0.00  0.00  0.00  0.97  0.00  0.00  0.03  0.00  0.00
  WS02006248WS02006247    1.00   0.00  0.00  0.00  0.99  0.00  0.00  0.01  0.27  0.00
  WS02006249WS02006248    1.00   0.00  0.00  0.00  0.68  0.00  0.32  0.00  0.00  0.00
  WS02006251WS02006249    1.00   0.00  0.00  0.00  0.99  0.01  0.00  0.00  0.34  0.00
  WS02006252WS02006251    1.00   0.00  0.30  0.00  0.20  0.00  0.50  0.00  0.00  0.00
  WS02006256WS02006235    1.00   0.00  0.00  0.00  1.00  0.00  0.00  0.00  0.00  0.00
  WSF200WS02003060        1.00   0.00  0.13  0.00  0.19  0.68  0.00  0.00  0.30  0.00
  YS02001580YS02001583    1.00   0.13  0.50  0.00  0.36  0.00  0.00  0.00  0.59  0.00
  YS02001583YS02001586    1.00   0.37  0.21  0.00  0.42  0.00  0.00  0.00  0.60  0.00
  YS02001586YS02001590    1.00   0.13  0.00  0.00  0.51  0.03  0.00  0.33  0.27  0.00
  YS02001590YS02001593    1.00   0.13  0.00  0.00  0.28  0.00  0.59  0.00  0.00  0.00
  YS02001593YS02001596    1.00   0.13  0.00  0.00  0.29  0.00  0.00  0.58  0.01  0.00
  YS02001596YS02001600    1.00   0.13  0.00  0.00  0.32  0.01  0.00  0.55  0.02  0.00
  YS02001600YS02001601    1.00   0.13  0.00  0.00  0.87  0.00  0.00  0.00  0.52  0.00
  YS02001601YS02001602    1.00   0.13  0.00  0.00  0.87  0.00  0.00  0.00  0.00  0.00
  YS02001602YS02001605    1.00   0.13  0.00  0.00  0.87  0.00  0.00  0.00  0.00  0.00
  YS02001605YS02001607    1.00   0.13  0.00  0.00  0.87  0.00  0.00  0.00  0.00  0.00
  YS02001607YS02001610    1.00   0.13  0.00  0.00  0.87  0.00  0.00  0.00  0.00  0.00
  YS02001610YS02001613    1.00   0.13  0.00  0.00  0.87  0.00  0.00  0.00  0.00  0.00
  YS02001613YS02001616    1.00   0.13  0.00  0.00  0.87  0.00  0.00  0.00  0.00  0.00
  YS02001616YS02001619    1.00   0.13  0.00  0.00  0.87  0.00  0.00  0.00  0.00  0.00
  YS02001619YS02001622    1.00   0.13  0.00  0.00  0.87  0.00  0.00  0.00  0.25  0.00
  YS02001622YS02001625    1.00   0.13  0.00  0.00  0.87  0.00  0.00  0.00  0.00  0.00
  YS02001625YS02001629    1.00   0.13  0.01  0.00  0.32  0.00  0.54  0.00  0.00  0.00
  YS02001629YS02163301    1.00   0.13  0.00  0.00  0.87  0.00  0.00  0.00  0.00  0.00
  YS02001633YS02163601    1.00   0.00  0.01  0.00  0.99  0.00  0.00  0.00  0.12  0.00
  YS02001641YS02001644    1.00   0.00  0.01  0.00  0.99  0.00  0.00  0.00  0.00  0.00
  YS02001644YS02001647    1.00   0.00  0.13  0.00  0.87  0.00  0.00  0.00  0.00  0.00
  YS02001647YS02001649    1.00   0.00  0.13  0.00  0.67  0.20  0.00  0.00  0.52  0.00
  YS02001649YS02001757    1.00   0.00  0.00  0.00  0.91  0.09  0.00  0.00  0.33  0.00
  YS02001652YS02001649    1.00   0.00  0.00  0.00  1.00  0.00  0.00  0.00  0.62  0.00
  YS02001655YS02001652    1.00   0.00  0.00  0.00  0.36  0.01  0.00  0.64  0.02  0.00
  YS02001658YS02001655    1.00   0.00  0.13  0.00  0.84  0.04  0.00  0.00  0.55  0.00
  YS02001661YS02001658    1.00   0.13  0.00  0.00  0.69  0.18  0.00  0.00  0.58  0.00
  YS02001664YS02001661    1.00   0.13  0.00  0.00  0.86  0.02  0.00  0.00  0.63  0.00
  YS02001745YS02001748    1.00   0.00  0.00  0.00  0.31  0.00  0.00  0.69  0.03  0.00
  YS02001748YS02001751    1.00   0.00  0.00  0.00  0.97  0.03  0.00  0.00  0.66  0.00
  YS02001751YS02001754    1.00   0.00  0.00  0.00  0.36  0.00  0.00  0.64  0.02  0.00
  YS02001754YS02001757    1.00   0.00  0.00  0.00  1.00  0.00  0.00  0.00  0.63  0.00
  YS02001757CaochengTiaoxuchi    1.00   0.00  0.00  0.00  0.98  0.02  0.00  0.00  0.49  0.00
  YS02001759YS02001757    1.00   0.00  0.00  0.00  0.99  0.01  0.00  0.00  0.46  0.00
  YS02001762YS02001759    1.00   0.00  0.00  0.00  1.00  0.00  0.00  0.00  0.02  0.00
  YS02001765YS02001762    1.00   0.00  0.00  0.00  1.00  0.00  0.00  0.00  0.56  0.00
  YS02001767YS02001765    1.00   0.00  0.00  0.00  1.00  0.00  0.00  0.00  0.01  0.00
  YS02001770YS02001767    1.00   0.00  0.00  0.00  1.00  0.00  0.00  0.00  0.00  0.00
  YS02001774YS02001770    1.00   0.00  0.12  0.00  0.73  0.00  0.14  0.00  0.00  0.00
  YS02001779YS02001774    1.00   0.00  0.00  0.00  1.00  0.00  0.00  0.00  0.64  0.00
  YS02001783YS02001784    1.00   0.00  0.13  0.00  0.87  0.00  0.00  0.00  0.52  0.00
  YS02001784YS02001785    1.00   0.00  0.00  0.00  1.00  0.00  0.00  0.00  0.12  0.00
  YS02001786YS02001788    1.00   0.00  0.00  0.00  0.89  0.11  0.00  0.00  0.00  0.00
  YS02001788YS02001790    1.00   0.00  0.00  0.00  0.25  0.75  0.00  0.00  0.72  0.00
  YS02001790YS02001791    1.00   0.00  0.00  0.00  0.01  0.99  0.00  0.00  0.10  0.00
  YS02001791YS02001793    1.00   0.00  0.00  0.00  0.00  1.00  0.00  0.00  0.04  0.00
  YS02001793JiankangQianchi    1.00   0.00  0.00  0.00  0.88  0.12  0.00  0.00  0.84  0.00
  YS02001882YS02001884    1.00   0.13  0.00  0.00  0.87  0.00  0.00  0.00  0.00  0.00
  YS02001884YS02001887    1.00   0.06  0.05  0.00  0.89  0.00  0.00  0.00  0.00  0.00
  YS02001887YS02001890    1.00   0.00  0.00  0.00  0.97  0.00  0.03  0.00  0.00  0.00
  YS02001890YS02001895    1.00   0.00  0.13  0.00  0.87  0.00  0.00  0.00  0.00  0.00
  YS02001895YS02001898    1.00   0.13  0.00  0.00  0.87  0.00  0.00  0.00  0.00  0.00
  YS02001898YS02001901    1.00   0.13  0.00  0.00  0.87  0.00  0.00  0.00  0.00  0.00
  YS02001901YS02001904    1.00   0.13  0.00  0.00  0.87  0.00  0.00  0.00  0.00  0.00
  YS02001904YS02001907    1.00   0.00  0.13  0.00  0.87  0.00  0.00  0.00  0.00  0.00
  YS02001907YS02006553    1.00   0.00  0.02  0.00  0.98  0.00  0.00  0.00  0.00  0.00
  YS02001910YS02001907    1.00   0.00  0.00  0.00  0.97  0.00  0.00  0.03  0.10  0.00
  YS02001915YS02001910    1.00   0.00  0.00  0.00  0.98  0.02  0.00  0.00  0.10  0.00
  YS02001918YS02001915    1.00   0.00  0.01  0.00  0.98  0.02  0.00  0.00  0.61  0.00
  YS02001920YS02001918    1.00   0.00  0.01  0.00  0.99  0.00  0.00  0.00  0.00  0.00
  YS02001923YS02001920    1.00   0.00  0.00  0.00  1.00  0.00  0.00  0.00  0.75  0.00
  YS02001926YS02001923    1.00   0.00  0.07  0.00  0.24  0.00  0.68  0.00  0.00  0.00
  YS02001929YS02001926    1.00   0.00  0.13  0.00  0.87  0.00  0.00  0.00  0.62  0.00
  YS02006553YS02006556    1.00   0.01  0.00  0.00  0.99  0.00  0.00  0.00  0.03  0.00
  YS02006556YS02006558    1.00   0.00  0.00  0.00  1.00  0.00  0.00  0.00  0.00  0.00
  YS02006558YS02006561    1.00   0.13  0.00  0.00  0.24  0.63  0.00  0.00  0.12  0.00
  YS02006561YS02001783    1.00   0.13  0.00  0.00  0.26  0.61  0.00  0.00  0.60  0.00
  YS02163301YS02001633    1.00   0.00  0.13  0.00  0.87  0.00  0.00  0.00  0.00  0.00
  YS02163601YS02164001    1.00   0.00  0.08  0.00  0.92  0.00  0.00  0.00  0.00  0.00
  YS02164001YS02001641    1.00   0.01  0.07  0.00  0.92  0.00  0.00  0.00  0.05  0.00
  
  
  *************************
  Conduit Surcharge Summary
  *************************
  
  ----------------------------------------------------------------------------
                                                           Hours        Hours 
                         --------- Hours Full --------   Above Full   Capacity
  Conduit                Both Ends  Upstream  Dnstream   Normal Flow   Limited
  ----------------------------------------------------------------------------
  WS02003072WS02003073        0.01      0.01      0.01      2.18         0.01
  WS02004403WS02004404        0.01      0.01      0.03      0.01         0.01
  WS02004404WS02004405        0.01      0.03      0.01      5.06         0.01
  WS02004405WS02004406        0.01      0.01      0.01      1.19         0.01
  WS02006109WS02006110        1.25      1.25      3.52      1.46         0.01
  WS02006110WS02006113        0.01      0.01      3.47      0.01         0.01
  WS02006111WS02006112        0.01      0.01      3.75      0.01         0.01
  WS02006112WS02006115        0.01      0.01      1.55      0.01         0.01
  WS02006228WS02006109        3.42      3.52      3.42      3.91         3.42
  WS02006229WS02006228        3.40      3.43      3.40      3.73         3.39
  WS02006230WS02006229        3.61      3.69      3.61      5.44         3.61
  WS02006231WS02006230        1.29      1.29      1.59      5.23         0.01
  WS02006232WS02006231        1.49      1.49      3.54      1.59         0.01
  WS02006234WS02006232        3.29      3.29      3.54      1.58         1.55
  WS02006235WS02006234        1.98      1.99      3.36      5.11         0.03
  WS02006238WS02006235        3.39      3.39      3.56      0.01         0.01
  WS02006239WS02006238        3.46      3.54      3.46      3.70         3.11
  WS02006240WS02006239        3.40      3.47      3.40      3.70         2.85
  WS02006242WS02006240        3.44      3.44      3.63      3.83         0.01
  WS02006243WS02006242        3.49      3.49      3.59      0.01         0.07
  WS02006245WS02006243        3.48      3.50      3.48      2.40         2.35
  WS02006247WS02006245        3.48      3.53      3.48      4.85         3.46
  WS02006248WS02006247        3.49      3.49      3.51      0.01         0.07
  WS02006249WS02006248        3.46      3.46      3.51      4.84         0.01
  WS02006251WS02006249        3.51      3.52      3.51      3.79         3.38
  WS02006252WS02006251        3.86      3.86      3.88      3.86         0.01
  WS02006256WS02006235        5.13      5.17      7.28      1.75         0.01
  YS02001580YS02001583        2.02      2.02      2.05      0.01         0.01
  YS02001583YS02001586        2.03      2.03      2.13      0.01         0.01
  YS02001586YS02001590        2.13      2.13      2.17      0.01         0.01
  YS02001590YS02001593        2.17      2.17      2.18      2.20         0.01
  YS02001593YS02001596        2.18      2.18      2.23      0.01         0.01
  YS02001596YS02001600        2.25      2.25      2.32      0.01         0.01
  YS02001600YS02001601        2.35      2.35      2.50      0.01         0.01
  YS02001601YS02001602        2.46      2.46      2.52      2.24         0.01
  YS02001602YS02001605        2.44      2.44      2.46      2.92         0.01
  YS02001605YS02001607        2.43      2.44      2.45      2.33         2.31
  YS02001607YS02001610        2.20      2.20      2.22      0.01         0.01
  YS02001610YS02001613        2.20      2.20      2.22      0.01         0.01
  YS02001613YS02001616        2.17      2.17      2.20      0.01         0.01
  YS02001616YS02001619        2.16      2.16      2.17      0.81         0.70
  YS02001619YS02001622        2.16      2.16      2.17      2.03         1.97
  YS02001622YS02001625        2.17      2.17      2.31      0.01         0.01
  YS02001625YS02001629        2.15      2.15      2.31      0.01         0.01
  YS02001629YS02163301        2.33      2.33      2.34      0.01         0.01
  YS02001633YS02163601        2.36      2.36      2.40      0.02         0.02
  YS02001641YS02001644        2.36      2.37      2.36      2.57         2.09
  YS02001644YS02001647        2.25      2.25      2.36      0.02         0.01
  YS02001647YS02001649        2.24      2.25      2.37      0.01         0.01
  YS02001649YS02001757        2.37      2.37      2.45      0.02         0.02
  YS02001652YS02001649        2.24      2.24      2.37      0.01         0.01
  YS02001655YS02001652        2.09      2.09      2.22      0.01         0.01
  YS02001658YS02001655        1.91      1.91      2.09      0.01         0.01
  YS02001661YS02001658        0.84      0.84      1.91      0.01         0.01
  YS02001664YS02001661        0.01      0.01      1.29      0.01         0.01
  YS02001745YS02001748        0.01      0.01      1.89      0.01         0.01
  YS02001748YS02001751        1.92      1.92      2.05      0.01         0.01
  YS02001751YS02001754        2.05      2.05      2.18      0.01         0.01
  YS02001754YS02001757        2.22      2.22      2.45      0.01         0.01
  YS02001757CaochengTiaoxuchi        2.34      2.45      3.09      0.80         0.68
  YS02001759YS02001757        2.38      2.38      2.45      0.19         0.19
  YS02001762YS02001759        2.36      2.36      2.38      0.01         0.01
  YS02001765YS02001762        2.32      2.32      2.36      0.01         0.01
  YS02001767YS02001765        2.29      2.29      2.32      0.01         0.01
  YS02001770YS02001767        2.29      2.29      2.29      1.97         1.71
  YS02001774YS02001770        2.27      2.27      2.34      0.01         0.01
  YS02001779YS02001774        2.17      2.17      2.34      0.01         0.01
  YS02001783YS02001784        1.98      1.99      1.98      2.05         1.98
  YS02001784YS02001785        1.92      1.98      1.92      2.11         1.92
  YS02001786YS02001788        0.01      1.92      0.01      2.08         0.01
  YS02001790YS02001791        0.01      0.01      0.01      1.97         0.01
  YS02001793JiankangQianchi        0.01      0.01      7.69      0.01         0.01
  YS02001882YS02001884        1.97      1.97      1.97      0.01         0.01
  YS02001884YS02001887        1.98      1.98      1.99      0.01         0.01
  YS02001887YS02001890        2.00      2.00      2.00      0.91         0.01
  YS02001890YS02001895        1.96      1.96      2.01      0.01         0.01
  YS02001895YS02001898        1.95      1.95      1.96      0.01         0.01
  YS02001898YS02001901        1.96      1.96      1.98      0.01         0.01
  YS02001901YS02001904        1.98      1.98      1.98      0.01         0.01
  YS02001904YS02001907        1.98      1.98      2.08      0.01         0.01
  YS02001907YS02006553        2.12      2.12      2.14      0.01         0.01
  YS02001910YS02001907        2.01      2.01      2.07      0.54         0.55
  YS02001915YS02001910        1.96      1.96      2.01      0.01         0.02
  YS02001918YS02001915        1.92      1.92      1.96      0.01         0.01
  YS02001920YS02001918        1.91      1.92      1.92      0.01         0.01
  YS02001923YS02001920        1.89      1.89      1.92      0.01         0.01
  YS02001926YS02001923        0.92      0.93      1.04      0.36         0.01
  YS02001929YS02001926        0.66      0.66      1.04      0.01         0.01
  YS02006553YS02006556        2.04      2.04      2.08      0.01         0.01
  YS02006556YS02006558        2.06      2.06      2.08      0.01         0.01
  YS02006558YS02006561        1.94      2.03      1.94      2.10         1.94
  YS02006561YS02001783        1.90      1.90      1.99      0.01         0.01
  YS02163301YS02001633        2.34      2.34      2.37      0.01         0.01
  YS02163601YS02164001        2.36      2.36      2.40      0.01         0.01
  YS02164001YS02001641        2.36      2.36      2.37      0.15         0.28
  
  
  ***************
  Pumping Summary
  ***************
  
  ---------------------------------------------------------------------------------------------------------
                                                  Min       Avg       Max     Total     Power    % Time Off
                        Percent   Number of      Flow      Flow      Flow    Volume     Usage    Pump Curve
  Pump                 Utilized   Start-Ups       LPS       LPS       LPS  10^6 ltr     Kw-hr    Low   High
  ---------------------------------------------------------------------------------------------------------
  CC-R1                   35.93           2      0.00    683.00    683.00     7.068    142.13    0.0   59.1
  CC-R2                   34.00           3      0.00    683.00    683.00     6.688    134.82    0.0   65.6
  CC-S1                   60.95          10      0.00    200.00    200.00     3.511     17.59    0.0   31.8
  CC-S2                   48.85          14      0.00    200.00    200.00     2.814     13.45    0.0   39.7
  JK-R1                   16.42          18      0.00   1000.00   1000.00     4.728     52.89    0.0    0.0
  JK-R2                    8.24          12      0.00   1000.00   1000.00     2.373     23.64    0.0    0.0
  JK-S                    21.90          20      0.00    300.00    300.00     1.892     27.11    0.0    0.0
  

  Analysis begun on:  Thu Feb 27 17:19:16 2025
  Analysis ended on:  Thu Feb 27 17:19:19 2025
  Total elapsed time: 00:00:03