
  EPA STORM WATER MANAGEMENT MODEL - VERSION 5.2 (Build 5.2.4)
  PYSWMM TOOLKIT API - VERSION v1.0 (2023-11-27)
  ------------------------------------------------------------

  WARNING 04: minimum elevation drop used for Conduit WS02004404WS02004405
  WARNING 03: negative offset ignored for Link YS02001904YS02001907
  
  ****************
  Analysis Options
  ****************
  Flow Units ............... LPS
  Process Models:
    Rainfall/Runoff ........ YES
    RDII ................... NO
    Snowmelt ............... NO
    Groundwater ............ NO
    Flow Routing ........... YES
    Ponding Allowed ........ NO
    Water Quality .......... NO
  Infiltration Method ...... HORTON
  Flow Routing Method ...... DYNWAVE
  Surcharge Method ......... EXTRAN
  Starting Date ............ 08/28/2015 08:00:00
  Ending Date .............. 08/28/2015 16:00:00
  Antecedent Dry Days ...... 8.0
  Report Time Step ......... 00:01:00
  Wet Time Step ............ 00:01:00
  Dry Time Step ............ 00:01:00
  Routing Time Step ........ 30.00 sec
  Variable Time Step ....... YES
  Maximum Trials ........... 8
  Number of Threads ........ 4
  Head Tolerance ........... 0.001500 m
  
  
  **************************        Volume         Depth
  Runoff Quantity Continuity     hectare-m            mm
  **************************     ---------       -------
  Total Precipitation ......         2.896        87.318
  Evaporation Loss .........         0.000         0.000
  Infiltration Loss ........         0.102         3.069
  Surface Runoff ...........         2.762        83.275
  Final Storage ............         0.033         0.995
  Continuity Error (%) .....        -0.025
  
  
  **************************        Volume        Volume
  Flow Routing Continuity        hectare-m      10^6 ltr
  **************************     ---------     ---------
  Dry Weather Inflow .......         0.025         0.251
  Wet Weather Inflow .......         2.763        27.633
  Groundwater Inflow .......         0.000         0.000
  RDII Inflow ..............         0.000         0.000
  External Inflow ..........         0.083         0.834
  External Outflow .........         1.871        18.707
  Flooding Loss ............         1.061        10.607
  Evaporation Loss .........         0.000         0.000
  Exfiltration Loss ........         0.000         0.000
  Initial Stored Volume ....         0.243         2.431
  Final Stored Volume ......         0.192         1.923
  Continuity Error (%) .....        -0.285
  
  
  *************************
  Highest Continuity Errors
  *************************
  Node YS02001583 (-10.72%)
  Node YS02001884 (4.86%)
  
  
  ***************************
  Time-Step Critical Elements
  ***************************
  Link WS02006252WS02006251 (36.39%)
  Link WS02006238WS02006235 (21.13%)
  Link WS02004404WS02004405 (9.33%)
  Link WS02006235WS02006234 (9.20%)
  Link YS02001791YS02001793 (6.50%)
  
  
  ********************************
  Highest Flow Instability Indexes
  ********************************
  Link WS02006113WS02006111 (55)
  Link WS02006111WS02006112 (28)
  Link WS02006252WS02006251 (16)
  Link WS02006238WS02006235 (16)
  Link WS02006256WS02006235 (15)
  
  
  *********************************
  Most Frequent Nonconverging Nodes
  *********************************
  Node CC-1 (13.26%)
  Node CC-2 (13.26%)
  Node JK-1 (13.26%)
  Node JK-2 (13.26%)
  Node WSC (13.26%)
  
  
  *************************
  Routing Time Step Summary
  *************************
  Minimum Time Step           :     0.01 sec
  Average Time Step           :     1.92 sec
  Maximum Time Step           :     7.04 sec
  % of Time in Steady State   :     0.00
  Average Iterations per Step :     3.22
  % of Steps Not Converging   :    13.26
  Time Step Frequencies       :
     30.000 - 13.228 sec      :     0.00 %
     13.228 -  5.833 sec      :     6.00 %
      5.833 -  2.572 sec      :    19.96 %
      2.572 -  1.134 sec      :    28.54 %
      1.134 -  0.500 sec      :    45.50 %
  
  
  ***************************
  Subcatchment Runoff Summary
  ***************************
  
  ------------------------------------------------------------------------------------------------------------------------------
                            Total      Total      Total      Total     Imperv       Perv      Total       Total     Peak  Runoff
                           Precip      Runon       Evap      Infil     Runoff     Runoff     Runoff      Runoff   Runoff   Coeff
  Subcatchment                 mm         mm         mm         mm         mm         mm         mm    10^6 ltr      LPS
  ------------------------------------------------------------------------------------------------------------------------------
  sub60                     87.32       0.00       0.00       1.86      75.65       8.62      84.27        1.11   682.43   0.965
  sub61                     87.32       0.00       0.00       2.69      71.35      12.15      83.51        1.53   943.71   0.956
  sub62                     87.32       0.00       0.00       1.24      79.05       5.75      84.80        2.32  1331.03   0.971
  sub63                     87.32       0.00       0.00       4.94      61.03      20.38      81.42        1.85  1048.13   0.932
  sub64                     87.32       0.00       0.00       2.50      73.02      10.60      83.62        2.01  1081.05   0.958
  sub65                     87.32       0.00       0.00       2.17      74.72       9.19      83.91        2.31  1207.61   0.961
  sub66                     87.32       0.00       0.00       6.06      60.92      19.26      80.19        3.74  1572.04   0.918
  sub67                     87.32       0.00       0.00       1.19      79.10       5.79      84.89        1.58  1032.23   0.972
  sub68                     87.32       0.00       0.00       2.23      73.91      10.00      83.91        2.31  1365.14   0.961
  sub69                     87.32       0.00       0.00       1.99      74.11      11.11      85.22        3.16  1611.79   0.976
  sub70                     87.32       0.00       0.00       6.56      57.47      23.13      80.60        2.33   885.04   0.923
  sub71                     87.32       0.00       0.00       1.27      79.01       5.72      84.73        2.22  1171.90   0.970
  sub72                     87.32       0.00       0.00       1.13      79.81       4.98      84.79        1.17   565.51   0.971
  
  
  ******************
  Node Depth Summary
  ******************
  
  ---------------------------------------------------------------------------------
                                 Average  Maximum  Maximum  Time of Max    Reported
                                   Depth    Depth      HGL   Occurrence   Max Depth
  Node                 Type       Meters   Meters   Meters  days hr:min      Meters
  ---------------------------------------------------------------------------------
  WS02003060           JUNCTION     0.25     0.38     5.32     0  03:08        0.38
  WS02003066           JUNCTION     0.21     0.30     5.85     0  03:07        0.30
  WS02003067           JUNCTION     0.53     0.70     6.02     0  03:07        0.70
  WS02003069           JUNCTION     0.28     0.43     5.01     0  03:08        0.43
  WS02003072           JUNCTION     0.35     0.50     4.87     0  03:09        0.50
  WS02003073           JUNCTION     0.20     0.30     4.36     0  03:10        0.30
  WS02004401           JUNCTION     0.62     0.85     6.85     0  03:04        0.85
  WS02004402           JUNCTION     0.65     0.88     6.84     0  03:04        0.88
  WS02004403           JUNCTION     0.67     0.89     6.82     0  03:05        0.89
  WS02004404           JUNCTION     0.75     0.96     6.81     0  03:05        0.96
  WS02004405           JUNCTION     0.74     0.96     6.81     0  03:05        0.96
  WS02004406           JUNCTION     0.75     0.96     6.79     0  03:05        0.96
  WS02004407           JUNCTION     0.19     0.30     6.61     0  03:05        0.30
  WS02004409           JUNCTION     0.42     0.67     6.44     0  03:05        0.67
  WS02004410           JUNCTION     0.45     0.68     6.40     0  03:07        0.68
  WS02004411           JUNCTION     0.47     0.69     6.37     0  03:08        0.69
  WS02004412           JUNCTION     0.49     0.70     6.34     0  03:06        0.70
  WS02004413           JUNCTION     0.65     0.86     6.33     0  03:07        0.86
  WS02006109           JUNCTION     0.69     2.37     8.98     0  02:16        2.37
  WS02006110           JUNCTION     0.69     1.65     8.23     0  02:16        0.99
  WS02006111           JUNCTION     0.19     0.29     6.99     0  03:04        0.29
  WS02006112           JUNCTION     0.78     1.07     6.95     0  03:11        1.06
  WS02006113           JUNCTION     0.30     0.46     7.35     0  02:52        0.46
  WS02006115           JUNCTION     0.50     0.75     6.89     0  03:04        0.75
  WS02006116           JUNCTION     0.59     0.83     6.87     0  03:04        0.83
  WS02006228           JUNCTION     0.68     3.03     9.68     0  02:16        3.03
  WS02006229           JUNCTION     0.66     3.25     9.94     0  02:16        3.25
  WS02006230           JUNCTION     0.66     2.65     9.39     0  02:16        2.65
  WS02006231           JUNCTION     0.46     2.24     9.36     0  02:16        2.24
  WS02006232           JUNCTION     0.60     2.18     9.22     0  02:16        2.18
  WS02006234           JUNCTION     0.52     1.96     9.12     0  02:16        1.96
  WS02006235           JUNCTION     0.56     2.00     9.16     0  02:16        2.00
  WS02006238           JUNCTION     0.59     2.15     9.29     0  02:16        2.15
  WS02006239           JUNCTION     0.57     2.03     9.24     0  02:16        2.03
  WS02006240           JUNCTION     0.54     2.10     9.39     0  02:16        2.10
  WS02006242           JUNCTION     0.61     1.55     8.82     0  02:16        1.55
  WS02006243           JUNCTION     0.52     1.48     8.90     0  02:16        1.48
  WS02006245           JUNCTION     0.52     1.56     9.04     0  02:16        1.56
  WS02006247           JUNCTION     0.55     1.47     8.97     0  02:16        1.47
  WS02006248           JUNCTION     0.51     1.10     8.69     0  02:00        1.10
  WS02006249           JUNCTION     0.54     1.09     8.69     0  01:43        1.09
  WS02006251           JUNCTION     0.54     1.38     9.05     0  03:10        1.14
  WS02006252           JUNCTION     0.39     1.50     9.74     0  00:00        0.75
  WS02006256           JUNCTION     0.99     2.35     9.28     0  00:00        2.35
  WSF200               JUNCTION     0.18     0.29     5.52     0  03:07        0.29
  YS02001580           JUNCTION     0.13     1.05     9.59     0  01:32        0.77
  YS02001583           JUNCTION     0.17     1.14     9.64     0  01:33        0.82
  YS02001586           JUNCTION     0.25     1.13     9.30     0  01:32        1.13
  YS02001590           JUNCTION     0.35     1.40     9.26     0  01:31        1.37
  YS02001593           JUNCTION     0.29     1.46     9.32     0  01:31        1.28
  YS02001596           JUNCTION     0.38     1.76     9.18     0  01:32        1.65
  YS02001600           JUNCTION     0.45     1.87     9.00     0  01:32        1.87
  YS02001601           JUNCTION     0.64     2.06     8.90     0  01:31        2.06
  YS02001602           JUNCTION     0.55     1.87     8.77     0  01:32        1.87
  YS02001605           JUNCTION     0.51     1.78     8.68     0  01:32        1.78
  YS02001607           JUNCTION     0.50     1.68     8.53     0  01:32        1.65
  YS02001610           JUNCTION     0.54     1.68     8.48     0  01:33        1.68
  YS02001613           JUNCTION     0.50     1.70     8.54     0  01:32        1.66
  YS02001616           JUNCTION     0.43     1.61     8.52     0  01:32        1.61
  YS02001619           JUNCTION     0.41     1.61     8.54     0  01:32        1.61
  YS02001622           JUNCTION     0.40     1.62     8.52     0  01:33        1.60
  YS02001625           JUNCTION     0.67     1.78     8.38     0  01:33        1.78
  YS02001629           JUNCTION     0.52     1.85     8.40     0  01:33        1.85
  YS02001633           JUNCTION     0.61     2.08     8.53     0  01:34        2.08
  YS02001641           JUNCTION     0.59     1.99     8.43     0  01:35        1.98
  YS02001644           JUNCTION     0.58     1.92     8.35     0  01:35        1.92
  YS02001647           JUNCTION     0.38     1.80     8.41     0  01:36        1.74
  YS02001649           JUNCTION     0.43     2.05     8.44     0  01:36        1.96
  YS02001652           JUNCTION     0.32     2.16     8.76     0  01:35        1.82
  YS02001655           JUNCTION     0.26     2.20     9.05     0  01:35        1.65
  YS02001658           JUNCTION     0.19     2.30     9.44     0  01:35        1.44
  YS02001661           JUNCTION     0.20     2.46     9.86     0  01:36        1.26
  YS02001664           JUNCTION     0.07     2.31    10.23     0  01:36        0.81
  YS02001745           JUNCTION     0.10     2.35     9.87     0  01:36        0.82
  YS02001748           JUNCTION     0.18     2.27     9.35     0  01:35        1.28
  YS02001751           JUNCTION     0.23     2.20     9.08     0  01:35        1.75
  YS02001754           JUNCTION     0.29     2.20     8.81     0  01:35        1.96
  YS02001757           JUNCTION     0.46     2.21     8.47     0  01:36        2.08
  YS02001759           JUNCTION     0.40     2.20     8.57     0  01:36        2.12
  YS02001762           JUNCTION     0.39     2.15     8.55     0  01:35        2.09
  YS02001765           JUNCTION     0.37     2.10     8.55     0  01:35        2.03
  YS02001767           JUNCTION     0.37     2.03     8.52     0  01:35        1.98
  YS02001770           JUNCTION     0.38     1.95     8.44     0  01:35        1.95
  YS02001774           JUNCTION     0.44     2.04     8.47     0  01:35        2.02
  YS02001779           JUNCTION     0.28     1.68     8.37     0  01:35        1.68
  YS02001783           JUNCTION     0.27     1.68     7.82     0  01:34        1.24
  YS02001784           JUNCTION     0.28     1.49     7.55     0  01:34        1.13
  YS02001786           JUNCTION     0.24     1.18     7.21     0  01:34        0.88
  YS02001788           JUNCTION     0.17     0.62     6.60     0  01:39        0.62
  YS02001790           JUNCTION     0.20     0.73     6.37     0  01:39        0.72
  YS02001791           JUNCTION     0.12     0.44     5.91     0  01:50        0.43
  YS02001793           JUNCTION     0.07     0.28     5.11     0  01:35        0.28
  YS02001882           JUNCTION     0.36     1.83     8.55     0  01:33        1.68
  YS02001884           JUNCTION     0.45     1.93     8.55     0  01:33        1.77
  YS02001887           JUNCTION     0.53     1.96     8.50     0  01:33        1.85
  YS02001890           JUNCTION     0.56     1.81     8.32     0  01:33        1.81
  YS02001895           JUNCTION     0.32     1.75     8.50     0  01:33        1.59
  YS02001898           JUNCTION     0.33     1.77     8.51     0  01:33        1.56
  YS02001901           JUNCTION     0.45     1.87     8.48     0  01:33        1.68
  YS02001904           JUNCTION     0.43     1.83     8.46     0  01:33        1.64
  YS02001907           JUNCTION     0.75     1.96     8.25     0  01:33        1.96
  YS02001910           JUNCTION     0.55     2.04     8.54     0  01:34        2.00
  YS02001915           JUNCTION     0.36     2.00     8.72     0  01:33        2.00
  YS02001918           JUNCTION     0.22     1.81     8.88     0  01:34        1.65
  YS02001920           JUNCTION     0.29     2.14     9.15     0  01:35        1.71
  YS02001923           JUNCTION     0.17     2.03     9.29     0  01:35        1.42
  YS02001926           JUNCTION     0.20     1.90     9.35     0  01:35        1.25
  YS02001929           JUNCTION     0.12     1.78     9.47     0  01:35        1.03
  YS02006553           JUNCTION     0.75     2.12     8.40     0  01:34        2.01
  YS02006556           JUNCTION     0.73     2.27     8.58     0  01:34        2.00
  YS02006558           JUNCTION     0.77     2.36     8.63     0  01:34        2.04
  YS02006561           JUNCTION     0.18     1.52     8.18     0  01:34        0.91
  YS02163301           JUNCTION     0.55     1.96     8.47     0  01:34        1.92
  YS02163601           JUNCTION     0.65     2.08     8.48     0  01:34        2.04
  YS02164001           JUNCTION     0.58     2.01     8.47     0  01:35        1.96
  CC-1                 OUTFALL      0.00     0.00     0.00     0  00:00        0.00
  CC-2                 OUTFALL      0.00     0.00     0.00     0  00:00        0.00
  JK-1                 OUTFALL      0.00     0.00     0.00     0  00:00        0.00
  JK-2                 OUTFALL      0.00     0.00     0.00     0  00:00        0.00
  WSC                  OUTFALL      0.20     0.30     0.97     0  03:10        0.30
  CC-storage           STORAGE      0.92     1.81     7.31     0  02:22        1.81
  JK-storage           STORAGE      2.95     4.22     5.02     0  02:00        4.21
  
  
  *******************
  Node Inflow Summary
  *******************
  
  -------------------------------------------------------------------------------------------------
                                  Maximum  Maximum                  Lateral       Total        Flow
                                  Lateral    Total  Time of Max      Inflow      Inflow     Balance
                                   Inflow   Inflow   Occurrence      Volume      Volume       Error
  Node                 Type           LPS      LPS  days hr:min    10^6 ltr    10^6 ltr     Percent
  -------------------------------------------------------------------------------------------------
  WS02003060           JUNCTION     16.53   552.69     0  03:07       0.476        6.77       0.043
  WS02003066           JUNCTION      0.00   536.06     0  03:07           0        6.29       0.026
  WS02003067           JUNCTION      0.00   536.04     0  03:07           0         6.3       0.072
  WS02003069           JUNCTION      0.32   552.95     0  03:08     0.00922        6.77       0.074
  WS02003072           JUNCTION      0.00   552.87     0  03:08           0        6.77       0.126
  WS02003073           JUNCTION      1.82   554.65     0  03:09      0.0524        6.81       0.112
  WS02004401           JUNCTION      0.00   538.91     0  03:12           0        6.41       0.165
  WS02004402           JUNCTION      0.00   537.19     0  03:04           0         6.4       0.168
  WS02004403           JUNCTION      0.00   537.20     0  02:35           0        6.39       0.163
  WS02004404           JUNCTION      0.16   537.06     0  03:05     0.00467        6.38       0.136
  WS02004405           JUNCTION      0.04   536.95     0  03:05      0.0011        6.37       0.201
  WS02004406           JUNCTION      0.00   537.20     0  02:35           0        6.36       0.334
  WS02004407           JUNCTION      0.00   536.82     0  03:05           0        6.34       0.022
  WS02004409           JUNCTION      0.00   536.67     0  03:05           0        6.34       0.053
  WS02004410           JUNCTION      0.00   536.41     0  03:06           0        6.33       0.081
  WS02004411           JUNCTION      0.00   536.32     0  03:06           0        6.33       0.100
  WS02004412           JUNCTION      0.00   536.17     0  03:06           0        6.32       0.131
  WS02004413           JUNCTION      0.00   536.15     0  03:06           0        6.31       0.228
  WS02006109           JUNCTION      1.23   571.26     0  02:16      0.0354        6.45       0.112
  WS02006110           JUNCTION      0.00   573.39     0  02:16           0        6.45       0.109
  WS02006111           JUNCTION      0.00   561.44     0  02:27           0        6.44       0.008
  WS02006112           JUNCTION      0.00   542.43     0  03:04           0        6.44       0.281
  WS02006113           JUNCTION      0.00   574.08     0  02:16           0        6.44       0.035
  WS02006115           JUNCTION      0.00   555.56     0  03:11           0        6.42       0.108
  WS02006116           JUNCTION      0.00   541.29     0  03:12           0        6.41       0.097
  WS02006228           JUNCTION      0.00   570.55     0  02:16           0        6.42       0.039
  WS02006229           JUNCTION      0.00   569.36     0  02:16           0        6.43       0.082
  WS02006230           JUNCTION     10.28   590.72     0  02:00       0.296        6.43       0.054
  WS02006231           JUNCTION      0.00   573.50     0  02:24           0        6.14       0.007
  WS02006232           JUNCTION      0.00   572.82     0  02:24           0        6.15       0.169
  WS02006234           JUNCTION      0.00   568.54     0  02:24           0        6.14      -0.133
  WS02006235           JUNCTION      0.00   561.96     0  02:24           0        6.18       0.145
  WS02006238           JUNCTION      0.00   423.96     0  02:10           0        5.33      -0.173
  WS02006239           JUNCTION      0.00   423.15     0  02:10           0         5.3      -0.218
  WS02006240           JUNCTION      0.00   420.25     0  01:45           0        5.28      -0.008
  WS02006242           JUNCTION      0.00   419.86     0  01:45           0        5.27       0.044
  WS02006243           JUNCTION      0.00   419.22     0  01:45           0        5.26      -0.141
  WS02006245           JUNCTION      0.00   419.50     0  01:45           0        5.27       0.279
  WS02006247           JUNCTION      0.00   418.96     0  02:10           0        5.27       0.006
  WS02006248           JUNCTION      0.00   421.48     0  01:41           0        5.27      -0.025
  WS02006249           JUNCTION      0.00   473.64     0  05:20           0        5.49       0.245
  WS02006251           JUNCTION      0.08   407.76     0  03:10     0.00222        5.49       0.030
  WS02006252           JUNCTION      0.00   400.00     0  00:00           0        5.48      -0.193
  WS02006256           JUNCTION      0.00   300.00     0  00:00           0        1.27      -0.832
  WSF200               JUNCTION      0.00   536.08     0  03:07           0        6.29       0.011
  YS02001580           JUNCTION      0.00   157.14     0  01:32           0     0.00488       3.603
  YS02001583           JUNCTION      0.00   259.81     0  01:33           0      0.0153      -9.680
  YS02001586           JUNCTION    885.04   885.05     0  01:42        2.33        2.34       0.062
  YS02001590           JUNCTION      0.00   318.51     0  01:39           0        1.63      -0.031
  YS02001593           JUNCTION      0.00   318.44     0  01:39           0        1.63      -0.003
  YS02001596           JUNCTION      0.00   318.18     0  02:04           0        1.63      -0.017
  YS02001600           JUNCTION      0.00   318.41     0  01:39           0        1.63      -0.005
  YS02001601           JUNCTION   1611.79  1929.25     0  01:40        3.16        4.79      -0.003
  YS02001602           JUNCTION      0.00   574.28     0  01:32           0        2.63       0.008
  YS02001605           JUNCTION      0.00   574.28     0  01:32           0        2.45       0.005
  YS02001607           JUNCTION      0.00   574.26     0  01:32           0        2.45       0.075
  YS02001610           JUNCTION      0.00   890.97     0  01:42           0        2.94       0.056
  YS02001613           JUNCTION      0.00   562.16     0  01:32           0        2.24       0.067
  YS02001616           JUNCTION      0.00   579.74     0  01:32           0        2.24       0.020
  YS02001619           JUNCTION   1572.04  1572.04     0  01:42        3.74        5.49      -0.003
  YS02001622           JUNCTION      0.00  1020.41     0  01:41           0        4.99      -0.009
  YS02001625           JUNCTION      0.00  1441.98     0  01:43           0        5.33       0.160
  YS02001629           JUNCTION      0.00   955.73     0  01:33           0        3.87       0.000
  YS02001633           JUNCTION   1207.81  1441.68     0  01:34        2.32        5.72       0.055
  YS02001641           JUNCTION      0.00  1441.25     0  01:34           0        5.26       0.047
  YS02001644           JUNCTION   1081.09  1946.91     0  01:34        2.01        7.27       0.033
  YS02001647           JUNCTION      0.00  1946.81     0  01:34           0        6.39       0.004
  YS02001649           JUNCTION      0.00  2224.00     0  01:35           0        8.25      -0.004
  YS02001652           JUNCTION      0.00  1077.50     0  01:37           0        1.85      -0.091
  YS02001655           JUNCTION      0.15  1077.60     0  01:37     0.00443        1.85      -0.078
  YS02001658           JUNCTION      0.00  1077.39     0  01:37           0        1.86      -0.076
  YS02001661           JUNCTION      0.00  1075.27     0  01:37           0        1.86       0.024
  YS02001664           JUNCTION   1048.13  1048.13     0  01:39        1.85        1.85      -0.021
  YS02001745           JUNCTION    682.43   762.50     0  01:36        1.11        1.11       0.185
  YS02001748           JUNCTION      0.04   833.94     0  01:35      0.0013        1.11      -0.352
  YS02001751           JUNCTION      0.01   688.51     0  01:37    0.000317        1.12       0.067
  YS02001754           JUNCTION      0.26   688.63     0  01:37     0.00749        1.13      -0.182
  YS02001757           JUNCTION      0.00  3625.13     0  01:36           0        12.8       0.037
  YS02001759           JUNCTION    943.75  1571.46     0  01:36        1.53        3.44      -0.018
  YS02001762           JUNCTION      0.00   825.64     0  01:36           0         1.9      -0.020
  YS02001765           JUNCTION      0.00   827.13     0  01:36           0         1.9      -0.014
  YS02001767           JUNCTION      0.54   827.50     0  01:36      0.0154         1.9      -0.012
  YS02001770           JUNCTION   1331.18  1331.18     0  01:39        2.33        2.38      -0.020
  YS02001774           JUNCTION      0.00   800.58     0  01:39           0       0.511       0.159
  YS02001779           JUNCTION      0.01   800.75     0  01:39    0.000144       0.462      -0.272
  YS02001783           JUNCTION      0.00  1170.82     0  01:37           0        4.93       0.002
  YS02001784           JUNCTION      1.06  1171.79     0  01:37      0.0305        4.96       0.010
  YS02001786           JUNCTION      0.06  1171.82     0  01:37     0.00162        4.96       0.012
  YS02001788           JUNCTION      0.07  1171.87     0  01:37     0.00204        4.96       0.006
  YS02001790           JUNCTION      0.15  1175.43     0  01:40     0.00446        4.97       0.031
  YS02001791           JUNCTION      0.00  1296.21     0  01:39           0        4.97      -0.030
  YS02001793           JUNCTION      0.00  1251.97     0  01:50           0        4.97       0.006
  YS02001882           JUNCTION      0.00   127.83     0  01:33           0       0.013       4.211
  YS02001884           JUNCTION      0.00   150.14     0  01:33           0      0.0488       5.110
  YS02001887           JUNCTION   1032.68  1032.80     0  01:38        1.59        1.63       0.265
  YS02001890           JUNCTION      0.00  1032.82     0  01:38           0        1.59       0.301
  YS02001895           JUNCTION      0.00   564.76     0  01:34           0        1.35       0.116
  YS02001898           JUNCTION      0.00   563.68     0  01:34           0        1.35      -0.017
  YS02001901           JUNCTION      0.00   561.78     0  01:34           0        1.36       0.237
  YS02001904           JUNCTION      0.00   561.06     0  01:34           0        1.36       0.190
  YS02001907           JUNCTION      0.00  2449.31     0  01:40           0        4.87       0.340
  YS02001910           JUNCTION      0.00  1741.30     0  01:40           0        3.46       0.201
  YS02001915           JUNCTION   1171.92  1741.15     0  01:40        2.22        3.52       0.039
  YS02001918           JUNCTION      0.00   665.12     0  01:34           0        1.33      -0.004
  YS02001920           JUNCTION      2.87   675.35     0  01:34      0.0827        1.31       0.067
  YS02001923           JUNCTION      0.04   896.03     0  01:34     0.00109        1.21      -0.068
  YS02001926           JUNCTION      0.05  1133.79     0  01:34      0.0015        1.19      -0.050
  YS02001929           JUNCTION    565.51   883.57     0  01:35        1.17        1.17      -0.019
  YS02006553           JUNCTION      0.00   792.43     0  02:06           0        2.75       0.426
  YS02006556           JUNCTION      0.00   792.56     0  02:05           0        2.76       0.281
  YS02006558           JUNCTION   1366.02  1366.02     0  01:39        2.34        5.02       0.065
  YS02006561           JUNCTION      0.00  1181.66     0  01:34           0        4.93       0.001
  YS02163301           JUNCTION      0.00   912.07     0  01:34           0        3.86       0.031
  YS02163601           JUNCTION      0.11  1441.97     0  01:34     0.00317        5.25       0.085
  YS02164001           JUNCTION      0.00  1441.80     0  01:34           0        5.25       0.035
  CC-1                 OUTFALL       0.00   683.00     0  00:00           0        4.18       0.000
  CC-2                 OUTFALL       0.00   683.00     0  00:00           0           4       0.000
  JK-1                 OUTFALL       0.00  1000.00     0  00:00           0        2.46       0.000
  JK-2                 OUTFALL       0.00  1000.00     0  00:00           0        1.25       0.000
  WSC                  OUTFALL       0.00   554.61     0  03:10           0        6.81       0.000
  CC-storage           STORAGE       0.00  3625.40     0  01:36           0          15      -0.213
  JK-storage           STORAGE       0.00  1286.32     0  01:55           0        5.12      -0.041
  
  
  **********************
  Node Surcharge Summary
  **********************
  
  Surcharging occurs when water rises above the top of the highest conduit.
  ---------------------------------------------------------------------
                                               Max. Height   Min. Depth
                                   Hours       Above Crown    Below Rim
  Node                 Type      Surcharged         Meters       Meters
  ---------------------------------------------------------------------
  WS02006109           JUNCTION        2.54          1.546        0.274
  WS02006110           JUNCTION        0.70          0.738        1.112
  WS02006112           JUNCTION        0.75          0.066        1.614
  WS02006228           JUNCTION        2.51          2.200        0.000
  WS02006229           JUNCTION        2.56          2.450        0.000
  WS02006230           JUNCTION        0.71          1.570        0.000
  WS02006231           JUNCTION        0.84          1.530        0.000
  WS02006232           JUNCTION        2.80          1.480        0.000
  WS02006234           JUNCTION        1.17          1.240        0.000
  WS02006235           JUNCTION        2.53          1.290        0.000
  WS02006238           JUNCTION        2.63          1.430        0.000
  WS02006239           JUNCTION        2.51          1.290        0.000
  WS02006240           JUNCTION        2.53          1.390        0.000
  WS02006242           JUNCTION        2.81          0.820        0.000
  WS02006243           JUNCTION        2.59          0.770        0.000
  WS02006245           JUNCTION        2.59          0.850        0.000
  WS02006247           JUNCTION        2.65          0.760        0.000
  WS02006248           JUNCTION        2.56          0.380        0.000
  WS02006249           JUNCTION        2.64          0.390        0.000
  WS02006251           JUNCTION        0.91          0.347        0.833
  WS02006252           JUNCTION        3.31          1.100        0.000
  WS02006256           JUNCTION        7.14          2.050        0.000
  YS02001580           JUNCTION        0.87          0.450        0.000
  YS02001583           JUNCTION        0.88          0.500        0.000
  YS02001586           JUNCTION        1.07          0.510        0.000
  YS02001590           JUNCTION        1.16          0.750        0.000
  YS02001593           JUNCTION        1.16          0.840        0.000
  YS02001596           JUNCTION        1.29          1.035        0.035
  YS02001600           JUNCTION        1.47          1.190        0.000
  YS02001601           JUNCTION        1.73          1.440        0.000
  YS02001602           JUNCTION        1.66          1.270        0.000
  YS02001605           JUNCTION        1.63          1.180        0.000
  YS02001607           JUNCTION        1.17          0.680        0.000
  YS02001610           JUNCTION        1.20          0.680        0.000
  YS02001613           JUNCTION        1.16          0.700        0.000
  YS02001616           JUNCTION        1.11          0.610        0.000
  YS02001619           JUNCTION        1.09          0.610        0.000
  YS02001622           JUNCTION        1.09          0.620        0.000
  YS02001625           JUNCTION        1.31          0.780        0.000
  YS02001629           JUNCTION        1.03          0.470        0.000
  YS02001633           JUNCTION        1.34          1.060        0.000
  YS02001641           JUNCTION        1.30          0.991        0.109
  YS02001644           JUNCTION        1.29          0.920        0.000
  YS02001647           JUNCTION        1.06          0.804        0.096
  YS02001649           JUNCTION        1.22          1.050        0.000
  YS02001652           JUNCTION        0.99          1.130        0.000
  YS02001655           JUNCTION        0.75          1.200        0.000
  YS02001658           JUNCTION        0.37          1.300        0.000
  YS02001661           JUNCTION        0.12          1.390        0.000
  YS02001664           JUNCTION        0.01          1.310        0.000
  YS02001745           JUNCTION        0.01          1.350        0.000
  YS02001748           JUNCTION        0.27          1.190        0.000
  YS02001751           JUNCTION        0.53          1.200        0.000
  YS02001754           JUNCTION        0.87          1.150        0.000
  YS02001757           JUNCTION        1.31          1.210        0.000
  YS02001759           JUNCTION        1.21          1.205        0.005
  YS02001762           JUNCTION        1.17          1.150        0.000
  YS02001765           JUNCTION        1.11          1.100        0.000
  YS02001767           JUNCTION        1.06          1.030        0.000
  YS02001770           JUNCTION        1.04          0.920        0.000
  YS02001774           JUNCTION        1.15          1.044        0.006
  YS02001779           JUNCTION        0.85          0.680        0.000
  YS02001783           JUNCTION        0.73          0.878        0.722
  YS02001784           JUNCTION        0.71          0.686        0.804
  YS02001786           JUNCTION        0.59          0.379        1.051
  YS02001882           JUNCTION        0.66          0.830        0.000
  YS02001884           JUNCTION        0.68          0.870        0.000
  YS02001887           JUNCTION        0.72          0.911        0.039
  YS02001890           JUNCTION        0.74          0.760        0.000
  YS02001895           JUNCTION        0.65          0.750        0.000
  YS02001898           JUNCTION        0.65          0.740        0.000
  YS02001901           JUNCTION        0.71          0.870        0.000
  YS02001904           JUNCTION        0.69          0.831        0.019
  YS02001907           JUNCTION        0.96          0.950        0.000
  YS02001910           JUNCTION        0.77          1.036        0.064
  YS02001915           JUNCTION        0.67          1.000        0.000
  YS02001918           JUNCTION        0.57          0.810        0.000
  YS02001920           JUNCTION        0.59          1.140        0.000
  YS02001923           JUNCTION        0.21          0.820        0.000
  YS02001926           JUNCTION        0.24          0.900        0.000
  YS02001929           JUNCTION        0.04          0.780        0.000
  YS02006553           JUNCTION        0.99          1.121        0.069
  YS02006556           JUNCTION        0.86          1.233        0.117
  YS02006558           JUNCTION        0.85          1.264        0.136
  YS02006561           JUNCTION        0.53          0.718        0.432
  YS02163301           JUNCTION        1.33          0.958        0.072
  YS02163601           JUNCTION        1.39          1.080        0.000
  YS02164001           JUNCTION        1.30          1.010        0.090
  
  
  *********************
  Node Flooding Summary
  *********************
  
  Flooding refers to all water that overflows a node, whether it ponds or not.
  --------------------------------------------------------------------------
                                                             Total   Maximum
                                 Maximum   Time of Max       Flood    Ponded
                        Hours       Rate    Occurrence      Volume     Depth
  Node                 Flooded       LPS   days hr:min    10^6 ltr    Meters
  --------------------------------------------------------------------------
  WS02006228              0.01      1.19      0  02:16       0.000     0.000
  WS02006229              0.01      0.75      0  02:16       0.000     0.000
  WS02006230              0.01      2.63      0  02:16       0.000     0.000
  WS02006231              0.01      1.47      0  02:16       0.000     0.000
  WS02006232              0.01      1.33      0  02:16       0.000     0.000
  WS02006234              0.01      5.60      0  02:16       0.000     0.000
  WS02006235              0.01      4.75      0  02:16       0.000     0.000
  WS02006238              0.01      4.22      0  02:16       0.000     0.000
  WS02006239              0.01      1.49      0  02:16       0.000     0.000
  WS02006240              0.01      1.71      0  02:16       0.000     0.000
  WS02006242              0.01     22.28      0  02:50       0.000     0.000
  WS02006243              0.01      0.59      0  02:16       0.000     0.000
  WS02006245              0.01      0.39      0  02:16       0.000     0.000
  WS02006247              0.01      0.27      0  02:16       0.000     0.000
  WS02006248              0.01     18.72      0  02:05       0.000     0.000
  WS02006249              0.88     80.30      0  03:21       0.211     0.000
  WS02006252              0.01    245.63      0  00:00       0.000     0.000
  WS02006256              1.17    293.19      0  00:00       0.405     0.000
  YS02001580              0.01    104.89      0  01:33       0.000     0.000
  YS02001583              0.01    225.82      0  01:33       0.000     0.000
  YS02001586              0.71    567.67      0  01:42       0.697     0.000
  YS02001590              0.01    118.66      0  01:31       0.000     0.000
  YS02001593              0.01     19.03      0  01:31       0.000     0.000
  YS02001600              0.01      4.92      0  01:32       0.000     0.000
  YS02001601              0.97   1531.41      0  01:40       2.159     0.000
  YS02001602              0.89     62.06      0  02:07       0.181     0.000
  YS02001605              0.01      3.56      0  01:33       0.000     0.000
  YS02001607              0.01     61.02      0  01:32       0.000     0.000
  YS02001610              0.78    890.73      0  01:42       1.193     0.000
  YS02001613              0.01     14.96      0  01:32       0.000     0.000
  YS02001616              0.01     59.58      0  01:32       0.000     0.000
  YS02001619              0.01    145.41      0  01:32       0.000     0.000
  YS02001622              0.01    313.65      0  01:33       0.001     0.000
  YS02001625              0.76   1441.79      0  01:43       1.908     0.000
  YS02001629              0.18    413.73      0  01:37       0.133     0.000
  YS02001633              0.01      2.51      0  01:34       0.000     0.000
  YS02001644              0.30   1413.06      0  01:40       0.858     0.000
  YS02001649              0.01    190.23      0  01:36       0.003     0.000
  YS02001652              0.01     96.72      0  01:35       0.000     0.000
  YS02001655              0.01    411.12      0  01:35       0.001     0.000
  YS02001658              0.01    410.40      0  01:35       0.001     0.000
  YS02001661              0.01    343.60      0  01:36       0.000     0.000
  YS02001664              0.01    197.80      0  01:36       0.000     0.000
  YS02001745              0.01    331.79      0  01:36       0.000     0.000
  YS02001748              0.01    525.57      0  01:36       0.002     0.000
  YS02001751              0.01    291.74      0  01:35       0.001     0.000
  YS02001754              0.01     85.92      0  01:35       0.000     0.000
  YS02001757              0.01     25.90      0  01:36       0.000     0.000
  YS02001762              0.01     39.36      0  01:35       0.000     0.000
  YS02001765              0.01      4.39      0  01:35       0.000     0.000
  YS02001767              0.01    177.10      0  01:35       0.000     0.000
  YS02001770              0.03    271.13      0  01:35       0.004     0.000
  YS02001779              0.27    800.53      0  01:39       0.442     0.000
  YS02001882              0.01     29.66      0  01:33       0.000     0.000
  YS02001884              0.01     14.97      0  01:33       0.000     0.000
  YS02001890              0.24    513.72      0  01:38       0.225     0.000
  YS02001895              0.01    101.62      0  01:33       0.000     0.000
  YS02001898              0.01    230.19      0  01:33       0.000     0.000
  YS02001901              0.01     26.55      0  01:33       0.000     0.000
  YS02001907              0.50   2448.97      0  01:40       2.161     0.000
  YS02001915              0.01    214.74      0  01:33       0.000     0.000
  YS02001918              0.01    255.49      0  01:35       0.004     0.000
  YS02001920              0.01     55.84      0  01:35       0.000     0.000
  YS02001923              0.01    354.80      0  01:35       0.002     0.000
  YS02001926              0.01    888.55      0  01:35       0.004     0.000
  YS02001929              0.01    701.94      0  01:35       0.002     0.000
  YS02163601              0.01      5.69      0  01:34       0.000     0.000
  
  
  **********************
  Storage Volume Summary
  **********************
  
  ------------------------------------------------------------------------------------------------
                         Average    Avg   Evap  Exfil     Maximum    Max    Time of Max    Maximum
                          Volume   Pcnt   Pcnt   Pcnt      Volume   Pcnt     Occurrence    Outflow
  Storage Unit           1000 m³   Full   Loss   Loss     1000 m³   Full    days hr:min        LPS
  ------------------------------------------------------------------------------------------------
  CC-storage               2.552   39.8    0.0    0.0       5.037   78.6       0  02:22    1783.53
  JK-storage               0.148   50.8    0.0    0.0       0.212   72.8       0  02:00    2300.00
  
  
  ***********************
  Outfall Loading Summary
  ***********************
  
  -----------------------------------------------------------
                         Flow       Avg       Max       Total
                         Freq      Flow      Flow      Volume
  Outfall Node           Pcnt       LPS       LPS    10^6 ltr
  -----------------------------------------------------------
  CC-1                  22.28    683.00    683.00       4.181
  CC-2                  21.03    683.00    683.00       4.003
  JK-1                  11.84   1000.00   1000.00       2.464
  JK-2                   5.14   1000.00   1000.00       1.253
  WSC                   99.96    285.83    554.61       6.806
  -----------------------------------------------------------
  System                32.05   3651.83   3913.46      18.707
  
  
  ********************
  Link Flow Summary
  ********************
  
  -----------------------------------------------------------------------------
                                 Maximum  Time of Max   Maximum    Max/    Max/
                                  |Flow|   Occurrence   |Veloc|    Full    Full
  Link                 Type          LPS  days hr:min     m/sec    Flow   Depth
  -----------------------------------------------------------------------------
  1                    CONDUIT    554.61     0  03:10      2.83    0.19    0.30
  WS02003060WS02003069 CONDUIT    552.63     0  03:08      1.64    0.22    0.34
  WS02003066WSF200     CONDUIT    536.08     0  03:07      2.85    0.09    0.22
  WS02003067WS02003066 CONDUIT    536.06     0  03:07      1.21    0.17    0.42
  WS02003069WS02003072 CONDUIT    552.87     0  03:08      1.37    0.27    0.39
  WS02003072WS02003073 CONDUIT    552.83     0  03:09      1.43    1.19    0.37
  WS02004401WS02004402 CONDUIT    537.19     0  03:04      0.98    0.64    0.86
  WS02004402WS02004403 CONDUIT    537.20     0  02:35      0.97    0.77    0.88
  WS02004403WS02004404 CONDUIT    536.89     0  03:05      0.92    0.39    0.93
  WS02004404WS02004405 CONDUIT    536.91     0  03:05      1.08    5.26    0.96
  WS02004405WS02004406 CONDUIT    537.20     0  02:35      0.99    1.06    0.96
  WS02004406WS02004407 CONDUIT    536.82     0  03:05      1.04    0.24    0.63
  WS02004407WS02004409 CONDUIT    536.67     0  03:05      1.48    0.19    0.48
  WS02004409WS02004410 CONDUIT    536.41     0  03:06      0.96    0.69    0.67
  WS02004410WS02004411 CONDUIT    536.32     0  03:06      0.93    0.73    0.69
  WS02004411WS02004412 CONDUIT    536.17     0  03:06      0.92    0.76    0.69
  WS02004412WS02004413 CONDUIT    536.15     0  03:06      0.82    0.36    0.78
  WS02004413WS02003067 CONDUIT    536.04     0  03:07      1.11    0.23    0.59
  WS02006109WS02006110 CONDUIT    573.39     0  02:16      1.15    1.10    1.00
  WS02006110WS02006113 CONDUIT    574.08     0  02:16      1.40    0.52    0.78
  WS02006111WS02006112 CONDUIT    542.43     0  03:04      1.81    0.26    0.67
  WS02006112WS02006115 CONDUIT    555.56     0  03:11      0.78    0.33    0.87
  WS02006113WS02006111 CONDUIT    561.44     0  02:27      2.47    0.67    0.46
  WS02006115WS02006116 CONDUIT    541.29     0  03:12      0.97    0.69    0.76
  WS02006116WS02004401 CONDUIT    538.91     0  03:12      0.98    0.74    0.84
  WS02006228WS02006109 CONDUIT    570.03     0  02:16      1.13    2.49    1.00
  WS02006229WS02006228 CONDUIT    570.55     0  02:16      1.14    1.89    1.00
  WS02006230WS02006229 CONDUIT    569.36     0  02:16      1.48   12.67    1.00
  WS02006231WS02006230 CONDUIT    580.44     0  02:00      1.57    8.80    1.00
  WS02006232WS02006231 CONDUIT    573.50     0  02:24      1.51    1.20    1.00
  WS02006234WS02006232 CONDUIT    572.82     0  02:24      1.49    1.16    1.00
  WS02006235WS02006234 CONDUIT    568.54     0  02:24      1.48    6.00    1.00
  WS02006238WS02006235 CONDUIT    424.17     0  03:16      1.45    0.95    1.00
  WS02006239WS02006238 CONDUIT    423.96     0  02:10      1.10    1.36    1.00
  WS02006240WS02006239 CONDUIT    423.15     0  02:10      1.24    1.33    1.00
  WS02006242WS02006240 CONDUIT    420.25     0  01:45      1.13    1.67    1.00
  WS02006243WS02006242 CONDUIT    419.86     0  01:45      1.40    0.90    1.00
  WS02006245WS02006243 CONDUIT    419.22     0  01:45      1.45    1.24    1.00
  WS02006247WS02006245 CONDUIT    419.50     0  01:45      1.43    3.33    1.00
  WS02006248WS02006247 CONDUIT    418.96     0  02:10      1.44    0.91    1.00
  WS02006249WS02006248 CONDUIT    421.48     0  01:41      1.39    2.31    1.00
  WS02006251WS02006249 CONDUIT    473.64     0  05:20      1.99    1.37    1.00
  WS02006252WS02006251 CONDUIT    407.68     0  03:10     24.61    1.50    1.00
  WS02006256WS02006235 CONDUIT    288.91     0  00:00      4.23    3.06    1.00
  WSF200WS02003060     CONDUIT    536.16     0  03:07      2.06    0.12    0.28
  YS02001580YS02001583 CONDUIT    157.14     0  01:32      0.87    0.61    1.00
  YS02001583YS02001586 CONDUIT    192.20     0  01:33      0.87    0.29    1.00
  YS02001586YS02001590 CONDUIT    318.51     0  01:39      1.27    0.56    1.00
  YS02001590YS02001593 CONDUIT    318.44     0  01:39      1.13    2.00    1.00
  YS02001593YS02001596 CONDUIT    318.18     0  02:04      1.73    0.50    1.00
  YS02001596YS02001600 CONDUIT    318.41     0  01:39      1.23    0.62    1.00
  YS02001600YS02001601 CONDUIT    318.04     0  01:46      1.12    0.55    1.00
  YS02001601YS02001602 CONDUIT    574.28     0  01:32      2.03    2.07    1.00
  YS02001602YS02001605 CONDUIT    574.28     0  01:32      2.03   12.15    1.00
  YS02001605YS02001607 CONDUIT    574.26     0  01:32      2.03    3.15    1.00
  YS02001607YS02001610 CONDUIT    554.65     0  01:32      0.71    0.53    1.00
  YS02001610YS02001613 CONDUIT    562.16     0  01:32      0.72    0.65    1.00
  YS02001613YS02001616 CONDUIT    579.74     0  01:32      0.74    0.50    1.00
  YS02001616YS02001619 CONDUIT    554.70     0  01:41      0.71    0.96    1.00
  YS02001619YS02001622 CONDUIT   1020.41     0  01:41      1.30    1.50    1.00
  YS02001622YS02001625 CONDUIT   1020.75     0  01:41      1.30    0.54    1.00
  YS02001625YS02001629 CONDUIT    955.73     0  01:33      1.22    0.45    1.00
  YS02001629YS02163301 CONDUIT    912.07     0  01:34      1.16    1.12    1.00
  YS02001633YS02163601 CONDUIT   1441.86     0  01:34      1.84    1.51    1.00
  YS02001641YS02001644 CONDUIT   1441.13     0  01:34      1.83    4.66    1.00
  YS02001644YS02001647 CONDUIT   1946.81     0  01:34      2.48    1.14    1.00
  YS02001647YS02001649 CONDUIT   1949.91     0  01:34      2.48    1.03    1.00
  YS02001649YS02001757 CONDUIT   2223.19     0  01:35      2.83    1.35    1.00
  YS02001652YS02001649 CONDUIT   1077.81     0  01:37      1.37    0.53    1.00
  YS02001655YS02001652 CONDUIT   1077.50     0  01:37      1.54    0.52    1.00
  YS02001658YS02001655 CONDUIT   1077.45     0  01:37      2.04    0.46    1.00
  YS02001661YS02001658 CONDUIT   1077.39     0  01:37      2.44    0.42    1.00
  YS02001664YS02001661 CONDUIT   1075.27     0  01:37      2.55    0.34    1.00
  YS02001745YS02001748 CONDUIT    689.11     0  01:37      2.40    0.27    1.00
  YS02001748YS02001751 CONDUIT    688.50     0  01:37      1.89    0.35    1.00
  YS02001751YS02001754 CONDUIT    688.37     0  01:37      1.59    0.33    1.00
  YS02001754YS02001757 CONDUIT    688.89     0  01:37      0.88    0.28    1.00
  YS02001757CaochengTiaoxuchi CONDUIT   3625.40     0  01:36      4.77    1.57    1.00
  YS02001759YS02001757 CONDUIT   1570.92     0  01:36      2.00    1.12    1.00
  YS02001762YS02001759 CONDUIT    825.05     0  01:36      1.05    0.95    1.00
  YS02001765YS02001762 CONDUIT    825.64     0  01:36      1.05    0.77    1.00
  YS02001767YS02001765 CONDUIT    827.13     0  01:36      1.05    1.04    1.00
  YS02001770YS02001767 CONDUIT    826.96     0  01:36      1.05    3.28    1.00
  YS02001774YS02001770 CONDUIT    800.58     0  01:39      1.02    0.51    1.00
  YS02001779YS02001774 CONDUIT    800.74     0  01:39      1.02    0.40    1.00
  YS02001783YS02001784 CONDUIT   1170.73     0  01:37      2.33    1.61    1.00
  YS02001784YS02001785 CONDUIT   1171.77     0  01:37      2.33    2.73    1.00
  YS02001786YS02001788 CONDUIT   1171.80     0  01:37      2.49    2.26    0.89
  YS02001788YS02001790 CONDUIT   1175.28     0  01:40      2.72    0.87    0.84
  YS02001790YS02001791 CONDUIT   1296.21     0  01:39      3.43    1.41    0.70
  YS02001791YS02001793 CONDUIT   1251.97     0  01:50      6.77    0.54    0.43
  YS02001793JiankangQianchi CONDUIT   1286.32     0  01:55      2.55    0.10    0.64
  YS02001882YS02001884 CONDUIT    127.83     0  01:33      0.18    0.15    1.00
  YS02001884YS02001887 CONDUIT    150.14     0  01:33      0.19    0.20    1.00
  YS02001887YS02001890 CONDUIT   1032.82     0  01:38      1.32    1.77    1.00
  YS02001890YS02001895 CONDUIT    564.76     0  01:34      0.72    0.26    1.00
  YS02001895YS02001898 CONDUIT    563.68     0  01:34      0.72    0.98    1.00
  YS02001898YS02001901 CONDUIT    561.78     0  01:34      0.72    0.36    1.00
  YS02001901YS02001904 CONDUIT    561.06     0  01:34      0.71    0.87    1.00
  YS02001904YS02001907 CONDUIT    561.49     0  01:34      0.71    0.20    1.00
  YS02001907YS02006553 CONDUIT    792.43     0  02:06      0.88    0.93    1.00
  YS02001910YS02001907 CONDUIT   1741.64     0  01:40      2.22    0.98    1.00
  YS02001915YS02001910 CONDUIT   1741.30     0  01:40      2.22    0.86    1.00
  YS02001918YS02001915 CONDUIT    665.12     0  01:34      0.85    0.37    1.00
  YS02001920YS02001918 CONDUIT    672.48     0  01:34      0.86    0.65    1.00
  YS02001923YS02001920 CONDUIT    682.39     0  01:34      0.93    0.31    1.00
  YS02001926YS02001923 CONDUIT    907.12     0  01:34      1.35    1.30    1.00
  YS02001929YS02001926 CONDUIT    598.94     0  01:35      1.22    0.28    1.00
  YS02006553YS02006556 CONDUIT    792.56     0  02:05      1.01    0.68    1.00
  YS02006556YS02006558 CONDUIT    792.63     0  02:06      1.01    0.63    1.00
  YS02006558YS02006561 CONDUIT   1181.66     0  01:34      4.18    2.61    1.00
  YS02006561YS02001783 CONDUIT   1170.82     0  01:37      2.33    0.61    1.00
  YS02163301YS02001633 CONDUIT    911.91     0  01:34      1.16    0.86    1.00
  YS02163601YS02164001 CONDUIT   1441.80     0  01:34      1.84    1.28    1.00
  YS02164001YS02001641 CONDUIT   1441.25     0  01:34      1.84    1.97    1.00
  CC-R1                PUMP       683.00     0  00:00              1.00
  CC-R2                PUMP       683.00     0  00:00              1.00
  CC-S1                PUMP       200.00     0  00:00              1.00
  CC-S2                PUMP       200.00     0  00:00              1.00
  JK-R1                PUMP      1000.00     0  00:00              1.00
  JK-R2                PUMP      1000.00     0  00:00              1.00
  JK-S                 PUMP       300.00     0  00:00              1.00
  
  
  ***************************
  Flow Classification Summary
  ***************************
  
  -------------------------------------------------------------------------------------
                      Adjusted    ---------- Fraction of Time in Flow Class ---------- 
                       /Actual         Up    Down  Sub   Sup   Up    Down  Norm  Inlet 
  Conduit               Length    Dry  Dry   Dry   Crit  Crit  Crit  Crit  Ltd   Ctrl  
  -------------------------------------------------------------------------------------
  1                       1.00   0.00  0.00  0.00  0.00  1.00  0.00  0.00  0.40  0.00
  WS02003060WS02003069    1.00   0.00  0.00  0.00  0.98  0.02  0.00  0.00  0.56  0.00
  WS02003066WSF200        1.00   0.13  0.00  0.00  0.00  0.87  0.00  0.00  0.76  0.00
  WS02003067WS02003066    1.00   0.10  0.02  0.00  0.88  0.00  0.00  0.00  0.00  0.00
  WS02003069WS02003072    1.00   0.00  0.00  0.00  0.99  0.01  0.00  0.00  0.61  0.00
  WS02003072WS02003073    1.00   0.00  0.00  0.00  0.00  0.00  0.00  1.00  0.00  0.00
  WS02004401WS02004402    1.00   0.02  0.00  0.00  0.98  0.00  0.00  0.00  0.00  0.00
  WS02004402WS02004403    1.00   0.02  0.00  0.00  0.97  0.00  0.00  0.00  0.00  0.00
  WS02004403WS02004404    1.00   0.00  0.03  0.00  0.97  0.00  0.00  0.00  0.00  0.00
  WS02004404WS02004405    1.00   0.00  0.00  0.00  1.00  0.00  0.00  0.00  0.00  0.00
  WS02004405WS02004406    1.00   0.00  0.00  0.00  1.00  0.00  0.00  0.00  0.00  0.00
  WS02004406WS02004407    1.00   0.00  0.05  0.00  0.95  0.00  0.00  0.00  0.00  0.00
  WS02004407WS02004409    1.00   0.05  0.00  0.00  0.94  0.01  0.00  0.00  0.94  0.00
  WS02004409WS02004410    1.00   0.05  0.00  0.00  0.95  0.00  0.00  0.00  0.03  0.00
  WS02004410WS02004411    1.00   0.05  0.00  0.00  0.95  0.00  0.00  0.00  0.01  0.00
  WS02004411WS02004412    1.00   0.05  0.00  0.00  0.95  0.00  0.00  0.00  0.00  0.00
  WS02004412WS02004413    1.00   0.05  0.00  0.00  0.94  0.00  0.00  0.00  0.01  0.00
  WS02004413WS02003067    1.00   0.06  0.04  0.00  0.00  0.00  0.90  0.00  0.00  0.00
  WS02006109WS02006110    1.00   0.00  0.01  0.00  0.98  0.00  0.01  0.00  0.00  0.00
  WS02006110WS02006113    1.00   0.01  0.01  0.00  0.98  0.00  0.00  0.00  0.00  0.00
  WS02006111WS02006112    1.00   0.02  0.00  0.00  0.98  0.00  0.00  0.00  0.98  0.00
  WS02006112WS02006115    1.00   0.02  0.00  0.00  0.97  0.00  0.00  0.00  0.00  0.00
  WS02006113WS02006111    1.00   0.02  0.00  0.00  0.00  0.98  0.00  0.00  0.18  0.00
  WS02006115WS02006116    1.00   0.02  0.00  0.00  0.97  0.00  0.00  0.01  0.00  0.00
  WS02006116WS02004401    1.00   0.02  0.00  0.00  0.98  0.00  0.00  0.00  0.00  0.00
  WS02006228WS02006109    1.00   0.00  0.00  0.00  1.00  0.00  0.00  0.00  0.00  0.00
  WS02006229WS02006228    1.00   0.00  0.00  0.00  0.99  0.00  0.00  0.01  0.00  0.00
  WS02006230WS02006229    1.00   0.00  0.00  0.00  0.99  0.00  0.00  0.01  0.01  0.00
  WS02006231WS02006230    1.00   0.00  0.00  0.00  0.39  0.00  0.61  0.00  0.00  0.00
  WS02006232WS02006231    1.00   0.00  0.00  0.00  0.99  0.00  0.01  0.00  0.00  0.00
  WS02006234WS02006232    1.00   0.00  0.00  0.00  1.00  0.00  0.00  0.00  0.06  0.00
  WS02006235WS02006234    1.00   0.00  0.00  0.00  0.89  0.00  0.11  0.00  0.00  0.00
  WS02006238WS02006235    1.00   0.00  0.00  0.00  1.00  0.00  0.00  0.00  0.00  0.00
  WS02006239WS02006238    1.00   0.00  0.00  0.00  1.00  0.00  0.00  0.00  0.12  0.00
  WS02006240WS02006239    1.00   0.00  0.00  0.00  0.68  0.00  0.00  0.32  0.01  0.00
  WS02006242WS02006240    1.00   0.00  0.00  0.00  0.99  0.00  0.01  0.00  0.00  0.00
  WS02006243WS02006242    1.00   0.00  0.00  0.00  0.99  0.00  0.00  0.01  0.39  0.00
  WS02006245WS02006243    1.00   0.00  0.00  0.00  0.84  0.00  0.00  0.16  0.01  0.00
  WS02006247WS02006245    1.00   0.00  0.00  0.00  0.97  0.00  0.00  0.03  0.00  0.00
  WS02006248WS02006247    1.00   0.00  0.00  0.00  0.99  0.00  0.00  0.01  0.32  0.00
  WS02006249WS02006248    1.00   0.00  0.00  0.00  0.62  0.00  0.38  0.00  0.00  0.00
  WS02006251WS02006249    1.00   0.00  0.00  0.00  0.99  0.01  0.00  0.00  0.39  0.00
  WS02006252WS02006251    1.00   0.00  0.38  0.00  0.11  0.00  0.51  0.00  0.03  0.00
  WS02006256WS02006235    1.00   0.00  0.00  0.00  1.00  0.00  0.00  0.00  0.00  0.00
  WSF200WS02003060        1.00   0.00  0.13  0.00  0.21  0.67  0.00  0.00  0.37  0.00
  YS02001580YS02001583    1.00   0.19  0.57  0.00  0.24  0.00  0.00  0.00  0.67  0.00
  YS02001583YS02001586    1.00   0.41  0.30  0.00  0.29  0.00  0.00  0.00  0.67  0.00
  YS02001586YS02001590    1.00   0.13  0.00  0.00  0.44  0.04  0.00  0.40  0.32  0.00
  YS02001590YS02001593    1.00   0.13  0.01  0.00  0.16  0.00  0.71  0.00  0.00  0.00
  YS02001593YS02001596    1.00   0.13  0.00  0.00  0.18  0.01  0.00  0.67  0.02  0.00
  YS02001596YS02001600    1.00   0.13  0.00  0.00  0.23  0.01  0.00  0.63  0.03  0.00
  YS02001600YS02001601    1.00   0.13  0.01  0.00  0.86  0.00  0.00  0.00  0.58  0.00
  YS02001601YS02001602    1.00   0.13  0.01  0.00  0.87  0.00  0.00  0.00  0.00  0.00
  YS02001602YS02001605    1.00   0.13  0.00  0.00  0.87  0.00  0.00  0.00  0.00  0.00
  YS02001605YS02001607    1.00   0.13  0.00  0.00  0.87  0.00  0.00  0.00  0.00  0.00
  YS02001607YS02001610    1.00   0.13  0.01  0.00  0.86  0.00  0.00  0.00  0.01  0.00
  YS02001610YS02001613    1.00   0.13  0.00  0.00  0.87  0.00  0.00  0.00  0.00  0.00
  YS02001613YS02001616    1.00   0.13  0.00  0.00  0.87  0.00  0.00  0.00  0.00  0.00
  YS02001616YS02001619    1.00   0.13  0.00  0.00  0.87  0.00  0.00  0.00  0.00  0.00
  YS02001619YS02001622    1.00   0.13  0.00  0.00  0.87  0.00  0.00  0.00  0.28  0.00
  YS02001622YS02001625    1.00   0.13  0.00  0.00  0.87  0.00  0.00  0.00  0.03  0.00
  YS02001625YS02001629    1.00   0.13  0.04  0.00  0.20  0.00  0.63  0.00  0.00  0.00
  YS02001629YS02163301    1.00   0.14  0.01  0.00  0.85  0.00  0.00  0.00  0.00  0.00
  YS02001633YS02163601    1.00   0.00  0.01  0.00  0.99  0.00  0.00  0.00  0.14  0.00
  YS02001641YS02001644    1.00   0.00  0.01  0.00  0.99  0.00  0.00  0.00  0.00  0.00
  YS02001644YS02001647    1.00   0.00  0.16  0.00  0.84  0.00  0.00  0.00  0.00  0.00
  YS02001647YS02001649    1.00   0.00  0.16  0.00  0.60  0.24  0.00  0.00  0.54  0.00
  YS02001649YS02001757    1.00   0.00  0.00  0.00  0.88  0.12  0.00  0.00  0.38  0.00
  YS02001652YS02001649    1.00   0.00  0.00  0.00  0.97  0.03  0.00  0.00  0.69  0.00
  YS02001655YS02001652    1.00   0.00  0.00  0.00  0.23  0.01  0.00  0.76  0.04  0.00
  YS02001658YS02001655    1.00   0.00  0.14  0.00  0.72  0.15  0.00  0.00  0.64  0.00
  YS02001661YS02001658    1.00   0.14  0.00  0.00  0.55  0.31  0.00  0.00  0.68  0.00
  YS02001664YS02001661    1.00   0.13  0.00  0.00  0.78  0.10  0.00  0.00  0.84  0.00
  YS02001745YS02001748    1.00   0.00  0.00  0.00  0.16  0.01  0.00  0.84  0.05  0.00
  YS02001748YS02001751    1.00   0.00  0.00  0.00  0.88  0.12  0.00  0.00  0.75  0.00
  YS02001751YS02001754    1.00   0.00  0.00  0.00  0.21  0.00  0.00  0.79  0.02  0.00
  YS02001754YS02001757    1.00   0.00  0.00  0.00  1.00  0.00  0.00  0.00  0.74  0.00
  YS02001757CaochengTiaoxuchi    1.00   0.00  0.00  0.00  0.98  0.02  0.00  0.00  0.60  0.00
  YS02001759YS02001757    1.00   0.00  0.00  0.00  0.98  0.02  0.00  0.00  0.53  0.00
  YS02001762YS02001759    1.00   0.00  0.00  0.00  1.00  0.00  0.00  0.00  0.04  0.00
  YS02001765YS02001762    1.00   0.00  0.00  0.00  1.00  0.00  0.00  0.00  0.63  0.00
  YS02001767YS02001765    1.00   0.00  0.00  0.00  1.00  0.00  0.00  0.00  0.01  0.00
  YS02001770YS02001767    1.00   0.00  0.00  0.00  1.00  0.00  0.00  0.00  0.00  0.00
  YS02001774YS02001770    1.00   0.00  0.13  0.00  0.71  0.00  0.16  0.00  0.02  0.00
  YS02001779YS02001774    1.00   0.00  0.00  0.00  1.00  0.00  0.00  0.00  0.74  0.00
  YS02001783YS02001784    1.00   0.00  0.16  0.00  0.84  0.00  0.00  0.00  0.55  0.00
  YS02001784YS02001785    1.00   0.00  0.00  0.00  1.00  0.00  0.00  0.00  0.15  0.00
  YS02001786YS02001788    1.00   0.00  0.00  0.00  0.79  0.21  0.00  0.00  0.00  0.00
  YS02001788YS02001790    1.00   0.00  0.00  0.00  0.21  0.79  0.00  0.00  0.78  0.00
  YS02001790YS02001791    1.00   0.00  0.00  0.00  0.01  0.99  0.00  0.00  0.16  0.00
  YS02001791YS02001793    1.00   0.00  0.00  0.00  0.00  1.00  0.00  0.00  0.01  0.00
  YS02001793JiankangQianchi    1.00   0.00  0.00  0.00  0.97  0.03  0.00  0.00  0.95  0.00
  YS02001882YS02001884    1.00   0.15  0.01  0.00  0.85  0.00  0.00  0.00  0.00  0.00
  YS02001884YS02001887    1.00   0.06  0.05  0.00  0.89  0.00  0.00  0.00  0.00  0.00
  YS02001887YS02001890    1.00   0.00  0.00  0.00  0.97  0.00  0.03  0.00  0.00  0.00
  YS02001890YS02001895    1.00   0.00  0.15  0.00  0.85  0.00  0.00  0.00  0.00  0.00
  YS02001895YS02001898    1.00   0.15  0.00  0.00  0.83  0.00  0.01  0.00  0.00  0.00
  YS02001898YS02001901    1.00   0.16  0.00  0.00  0.84  0.00  0.00  0.00  0.00  0.00
  YS02001901YS02001904    1.00   0.16  0.00  0.00  0.84  0.00  0.00  0.00  0.00  0.00
  YS02001904YS02001907    1.00   0.00  0.15  0.00  0.84  0.00  0.00  0.00  0.00  0.00
  YS02001907YS02006553    1.00   0.00  0.02  0.00  0.98  0.00  0.00  0.00  0.00  0.00
  YS02001910YS02001907    1.00   0.00  0.00  0.00  0.97  0.00  0.00  0.03  0.12  0.00
  YS02001915YS02001910    1.00   0.00  0.00  0.00  0.97  0.03  0.00  0.00  0.13  0.00
  YS02001918YS02001915    1.00   0.00  0.01  0.00  0.98  0.02  0.00  0.00  0.72  0.00
  YS02001920YS02001918    1.00   0.00  0.01  0.00  0.99  0.00  0.00  0.00  0.00  0.00
  YS02001923YS02001920    1.00   0.00  0.00  0.00  1.00  0.00  0.00  0.00  0.90  0.00
  YS02001926YS02001923    1.00   0.00  0.07  0.00  0.08  0.00  0.84  0.00  0.00  0.00
  YS02001929YS02001926    1.00   0.00  0.13  0.00  0.87  0.00  0.00  0.00  0.80  0.00
  YS02006553YS02006556    1.00   0.01  0.00  0.00  0.99  0.00  0.00  0.00  0.03  0.00
  YS02006556YS02006558    1.00   0.00  0.00  0.00  1.00  0.00  0.00  0.00  0.00  0.00
  YS02006558YS02006561    1.00   0.16  0.00  0.00  0.08  0.76  0.00  0.00  0.17  0.00
  YS02006561YS02001783    1.00   0.16  0.00  0.00  0.11  0.72  0.00  0.00  0.66  0.00
  YS02163301YS02001633    1.00   0.00  0.14  0.00  0.86  0.00  0.00  0.00  0.00  0.00
  YS02163601YS02164001    1.00   0.00  0.08  0.00  0.92  0.00  0.00  0.00  0.00  0.00
  YS02164001YS02001641    1.00   0.01  0.07  0.00  0.92  0.00  0.00  0.00  0.05  0.00
  
  
  *************************
  Conduit Surcharge Summary
  *************************
  
  ----------------------------------------------------------------------------
                                                           Hours        Hours 
                         --------- Hours Full --------   Above Full   Capacity
  Conduit                Both Ends  Upstream  Dnstream   Normal Flow   Limited
  ----------------------------------------------------------------------------
  WS02003072WS02003073        0.01      0.01      0.01      1.26         0.01
  WS02004404WS02004405        0.01      0.01      0.01      4.47         0.01
  WS02004405WS02004406        0.01      0.01      0.01      0.67         0.01
  WS02006109WS02006110        0.69      0.69      2.78      0.82         0.01
  WS02006110WS02006113        0.01      0.01      2.64      0.01         0.01
  WS02006111WS02006112        0.01      0.01      3.35      0.01         0.01
  WS02006112WS02006115        0.01      0.01      0.75      0.01         0.01
  WS02006228WS02006109        2.54      2.77      2.54      3.66         2.53
  WS02006229WS02006228        2.51      2.56      2.51      3.32         2.50
  WS02006230WS02006229        3.01      3.23      3.01      4.97         3.01
  WS02006231WS02006230        0.71      0.71      0.89      4.74         0.01
  WS02006232WS02006231        0.84      0.84      2.80      0.90         0.01
  WS02006234WS02006232        2.42      2.42      2.80      0.90         0.89
  WS02006235WS02006234        1.16      1.17      2.52      4.60         0.02
  WS02006238WS02006235        2.57      2.57      2.82      0.01         0.01
  WS02006239WS02006238        2.57      2.68      2.63      3.13         2.40
  WS02006240WS02006239        2.51      2.55      2.51      3.13         2.27
  WS02006242WS02006240        2.53      2.53      2.89      3.33         0.01
  WS02006243WS02006242        2.62      2.62      2.81      0.01         0.04
  WS02006245WS02006243        2.58      2.62      2.59      2.37         1.86
  WS02006247WS02006245        2.59      2.69      2.59      4.23         2.58
  WS02006248WS02006247        2.60      2.60      2.65      0.01         0.04
  WS02006249WS02006248        2.56      2.56      2.64      4.20         0.01
  WS02006251WS02006249        2.63      2.66      2.64      3.21         2.56
  WS02006252WS02006251        3.29      3.29      3.31      3.29         0.01
  WS02006256WS02006235        4.62      4.67      7.10      1.17         0.01
  YS02001580YS02001583        0.87      0.87      0.94      0.01         0.01
  YS02001583YS02001586        0.88      0.88      1.07      0.01         0.01
  YS02001586YS02001590        1.07      1.07      1.16      0.01         0.01
  YS02001590YS02001593        1.16      1.16      1.18      1.23         0.01
  YS02001593YS02001596        1.17      1.17      1.29      0.01         0.01
  YS02001596YS02001600        1.34      1.34      1.47      0.01         0.01
  YS02001600YS02001601        1.54      1.54      1.73      0.01         0.01
  YS02001601YS02001602        1.66      1.66      1.76      1.45         0.01
  YS02001602YS02001605        1.63      1.63      1.66      2.40         0.01
  YS02001605YS02001607        1.60      1.63      1.60      1.71         1.60
  YS02001607YS02001610        1.17      1.17      1.20      0.01         0.01
  YS02001610YS02001613        1.16      1.16      1.20      0.01         0.01
  YS02001613YS02001616        1.11      1.11      1.16      0.01         0.01
  YS02001616YS02001619        1.09      1.09      1.11      0.01         0.07
  YS02001619YS02001622        1.09      1.09      1.09      1.11         1.00
  YS02001622YS02001625        1.09      1.09      1.31      0.01         0.01
  YS02001625YS02001629        1.03      1.03      1.31      0.01         0.01
  YS02001629YS02163301        1.31      1.31      1.33      0.02         0.12
  YS02001633YS02163601        1.34      1.34      1.39      0.28         0.29
  YS02001641YS02001644        1.29      1.30      1.29      1.78         1.28
  YS02001644YS02001647        1.06      1.06      1.29      0.04         0.01
  YS02001647YS02001649        1.06      1.06      1.22      0.01         0.01
  YS02001649YS02001757        1.22      1.22      1.31      0.05         0.03
  YS02001652YS02001649        1.02      1.02      1.22      0.01         0.01
  YS02001655YS02001652        0.75      0.75      0.98      0.01         0.01
  YS02001658YS02001655        0.37      0.37      0.75      0.01         0.01
  YS02001661YS02001658        0.12      0.12      0.37      0.01         0.01
  YS02001664YS02001661        0.01      0.01      0.16      0.01         0.01
  YS02001745YS02001748        0.01      0.01      0.27      0.01         0.01
  YS02001748YS02001751        0.33      0.33      0.53      0.01         0.01
  YS02001751YS02001754        0.53      0.53      0.87      0.01         0.01
  YS02001754YS02001757        0.94      0.94      1.31      0.01         0.01
  YS02001757CaochengTiaoxuchi        1.24      1.31      2.35      0.47         0.38
  YS02001759YS02001757        1.21      1.21      1.31      0.09         0.08
  YS02001762YS02001759        1.17      1.17      1.21      0.01         0.02
  YS02001765YS02001762        1.11      1.11      1.17      0.01         0.01
  YS02001767YS02001765        1.06      1.06      1.11      0.01         0.02
  YS02001770YS02001767        1.06      1.06      1.06      0.72         0.71
  YS02001774YS02001770        1.04      1.04      1.15      0.01         0.01
  YS02001779YS02001774        0.85      0.85      1.15      0.01         0.01
  YS02001783YS02001784        0.71      0.73      0.71      0.89         0.71
  YS02001784YS02001785        0.59      0.71      0.59      1.20         0.59
  YS02001786YS02001788        0.01      0.59      0.01      1.03         0.01
  YS02001790YS02001791        0.01      0.01      0.01      0.69         0.01
  YS02001793JiankangQianchi        0.01      0.01      7.70      0.01         0.01
  YS02001882YS02001884        0.66      0.66      0.68      0.01         0.01
  YS02001884YS02001887        0.70      0.70      0.72      0.01         0.01
  YS02001887YS02001890        0.74      0.74      0.75      0.20         0.01
  YS02001890YS02001895        0.65      0.65      0.77      0.01         0.01
  YS02001895YS02001898        0.65      0.65      0.65      0.01         0.01
  YS02001898YS02001901        0.66      0.66      0.71      0.01         0.01
  YS02001901YS02001904        0.69      0.69      0.71      0.01         0.01
  YS02001904YS02001907        0.69      0.69      1.00      0.01         0.01
  YS02001907YS02006553        1.22      1.22      1.32      0.01         0.01
  YS02001910YS02001907        0.77      0.77      0.96      0.01         0.01
  YS02001915YS02001910        0.67      0.67      0.77      0.01         0.01
  YS02001918YS02001915        0.57      0.57      0.67      0.01         0.01
  YS02001920YS02001918        0.57      0.57      0.59      0.01         0.01
  YS02001923YS02001920        0.52      0.52      0.59      0.01         0.01
  YS02001926YS02001923        0.21      0.21      0.24      0.01         0.01
  YS02001929YS02001926        0.04      0.04      0.24      0.01         0.01
  YS02006553YS02006556        0.86      0.86      0.99      0.01         0.01
  YS02006556YS02006558        0.92      0.92      1.03      0.01         0.01
  YS02006558YS02006561        0.61      0.85      0.61      1.15         0.61
  YS02006561YS02001783        0.53      0.53      0.73      0.01         0.01
  YS02163301YS02001633        1.33      1.33      1.36      0.01         0.01
  YS02163601YS02164001        1.30      1.30      1.39      0.04         0.01
  YS02164001YS02001641        1.30      1.30      1.30      0.86         0.82
  
  
  ***************
  Pumping Summary
  ***************
  
  ---------------------------------------------------------------------------------------------------------
                                                  Min       Avg       Max     Total     Power    % Time Off
                        Percent   Number of      Flow      Flow      Flow    Volume     Usage    Pump Curve
  Pump                 Utilized   Start-Ups       LPS       LPS       LPS  10^6 ltr     Kw-hr    Low   High
  ---------------------------------------------------------------------------------------------------------
  CC-R1                   21.25           2      0.00    683.00    683.00     4.180     80.02    0.0    8.8
  CC-R2                   20.36           4      0.00    683.00    683.00     4.004     76.75    0.0    9.4
  CC-S1                   50.53          16      0.00    200.00    200.00     2.910     16.95    0.0    0.0
  CC-S2                   44.67          22      0.00    200.00    200.00     2.573     15.04    0.0    0.0
  JK-R1                    8.55          12      0.00   1000.00   1000.00     2.462     26.65    0.0    0.0
  JK-R2                    4.34          13      0.00   1000.00   1000.00     1.251     10.30    0.0    0.0
  JK-S                    14.62          17      0.00    300.00    300.00     1.263     19.52    0.0    0.0
  

  Analysis begun on:  Wed Jan 15 10:42:16 2025
  Analysis ended on:  Wed Jan 15 10:42:17 2025
  Total elapsed time: 00:00:01