
  EPA STORM WATER MANAGEMENT MODEL - VERSION 5.2 (Build 5.2.4)
  PYSWMM TOOLKIT API - VERSION v1.0 (2023-11-27)
  ------------------------------------------------------------

  WARNING 04: minimum elevation drop used for Conduit WS02004404WS02004405
  WARNING 03: negative offset ignored for Link YS02001904YS02001907
  
  ****************
  Analysis Options
  ****************
  Flow Units ............... LPS
  Process Models:
    Rainfall/Runoff ........ YES
    RDII ................... NO
    Snowmelt ............... NO
    Groundwater ............ NO
    Flow Routing ........... YES
    Ponding Allowed ........ NO
    Water Quality .......... NO
  Infiltration Method ...... HORTON
  Flow Routing Method ...... DYNWAVE
  Surcharge Method ......... EXTRAN
  Starting Date ............ 08/28/2015 08:00:00
  Ending Date .............. 08/28/2015 16:00:00
  Antecedent Dry Days ...... 8.0
  Report Time Step ......... 00:01:00
  Wet Time Step ............ 00:01:00
  Dry Time Step ............ 00:01:00
  Routing Time Step ........ 30.00 sec
  Variable Time Step ....... YES
  Maximum Trials ........... 8
  Number of Threads ........ 4
  Head Tolerance ........... 0.001500 m
  
  
  **************************        Volume         Depth
  Runoff Quantity Continuity     hectare-m            mm
  **************************     ---------       -------
  Total Precipitation ......         3.409       102.768
  Evaporation Loss .........         0.000         0.000
  Infiltration Loss ........         0.106         3.205
  Surface Runoff ...........         3.270        98.583
  Final Storage ............         0.033         0.997
  Continuity Error (%) .....        -0.017
  
  
  **************************        Volume        Volume
  Flow Routing Continuity        hectare-m      10^6 ltr
  **************************     ---------     ---------
  Dry Weather Inflow .......         0.025         0.251
  Wet Weather Inflow .......         3.270        32.701
  Groundwater Inflow .......         0.000         0.000
  RDII Inflow ..............         0.000         0.000
  External Inflow ..........         0.083         0.834
  External Outflow .........         1.996        19.963
  Flooding Loss ............         1.452        14.518
  Evaporation Loss .........         0.000         0.000
  Exfiltration Loss ........         0.000         0.000
  Initial Stored Volume ....         0.243         2.431
  Final Stored Volume ......         0.182         1.823
  Continuity Error (%) .....        -0.243
  
  
  *************************
  Highest Continuity Errors
  *************************
  Node YS02001884 (4.81%)
  Node YS02001583 (-2.87%)
  Node WS02006256 (-1.36%)
  
  
  ***************************
  Time-Step Critical Elements
  ***************************
  Link WS02006252WS02006251 (24.43%)
  Link WS02006238WS02006235 (19.39%)
  Link WS02004404WS02004405 (19.14%)
  Link YS02001791YS02001793 (12.28%)
  Link WS02006235WS02006234 (9.91%)
  
  
  ********************************
  Highest Flow Instability Indexes
  ********************************
  Link WS02006113WS02006111 (43)
  Link WS02006238WS02006235 (30)
  Link WS02006111WS02006112 (28)
  Link WS02004404WS02004405 (26)
  Link WS02006252WS02006251 (26)
  
  
  *********************************
  Most Frequent Nonconverging Nodes
  *********************************
  Node CC-1 (16.19%)
  Node CC-2 (16.19%)
  Node JK-1 (16.19%)
  Node JK-2 (16.19%)
  Node WSC (16.19%)
  
  
  *************************
  Routing Time Step Summary
  *************************
  Minimum Time Step           :     0.00 sec
  Average Time Step           :     2.43 sec
  Maximum Time Step           :     7.04 sec
  % of Time in Steady State   :     0.00
  Average Iterations per Step :     3.66
  % of Steps Not Converging   :    16.19
  Time Step Frequencies       :
     30.000 - 13.228 sec      :     0.00 %
     13.228 -  5.833 sec      :    11.40 %
      5.833 -  2.572 sec      :    25.52 %
      2.572 -  1.134 sec      :    32.44 %
      1.134 -  0.500 sec      :    30.64 %
  
  
  ***************************
  Subcatchment Runoff Summary
  ***************************
  
  ------------------------------------------------------------------------------------------------------------------------------
                            Total      Total      Total      Total     Imperv       Perv      Total       Total     Peak  Runoff
                           Precip      Runon       Evap      Infil     Runoff     Runoff     Runoff      Runoff   Runoff   Coeff
  Subcatchment                 mm         mm         mm         mm         mm         mm         mm    10^6 ltr      LPS
  ------------------------------------------------------------------------------------------------------------------------------
  sub60                    102.77       0.00       0.00       1.90      89.24      10.43      99.67        1.31   801.71   0.970
  sub61                    102.77       0.00       0.00       2.77      84.17      14.71      98.88        1.81  1116.35   0.962
  sub62                    102.77       0.00       0.00       1.27      93.26       6.96     100.22        2.75  1582.40   0.975
  sub63                    102.77       0.00       0.00       5.12      72.00      24.68      96.68        2.19  1291.54   0.941
  sub64                    102.77       0.00       0.00       2.59      86.15      12.83      98.98        2.38  1322.09   0.963
  sub65                    102.77       0.00       0.00       2.24      88.16      11.12      99.28        2.73  1488.74   0.966
  sub66                    102.77       0.00       0.00       6.38      71.89      23.42      95.31        4.44  2080.07   0.927
  sub67                    102.77       0.00       0.00       1.21      93.31       7.01     100.32        1.87  1186.22   0.976
  sub68                    102.77       0.00       0.00       2.29      87.20      12.10      99.30        2.73  1621.41   0.966
  sub69                    102.77       0.00       0.00       2.08      87.24      13.34     100.58        3.72  1981.83   0.979
  sub70                    102.77       0.00       0.00       6.99      67.66      27.95      95.61        2.76  1179.60   0.930
  sub71                    102.77       0.00       0.00       1.30      93.22       6.92     100.14        2.62  1429.28   0.974
  sub72                    102.77       0.00       0.00       1.16      94.17       6.03     100.20        1.38   707.99   0.975
  
  
  ******************
  Node Depth Summary
  ******************
  
  ---------------------------------------------------------------------------------
                                 Average  Maximum  Maximum  Time of Max    Reported
                                   Depth    Depth      HGL   Occurrence   Max Depth
  Node                 Type       Meters   Meters   Meters  days hr:min      Meters
  ---------------------------------------------------------------------------------
  WS02003060           JUNCTION     0.25     0.38     5.32     0  02:37        0.38
  WS02003066           JUNCTION     0.20     0.30     5.85     0  02:37        0.30
  WS02003067           JUNCTION     0.51     0.70     6.02     0  02:36        0.70
  WS02003069           JUNCTION     0.28     0.43     5.02     0  02:38        0.43
  WS02003072           JUNCTION     0.34     0.50     4.87     0  02:39        0.50
  WS02003073           JUNCTION     0.19     0.30     4.36     0  02:40        0.30
  WS02004401           JUNCTION     0.62     0.88     6.88     0  02:51        0.88
  WS02004402           JUNCTION     0.65     0.91     6.87     0  02:40        0.90
  WS02004403           JUNCTION     0.68     0.92     6.85     0  02:40        0.92
  WS02004404           JUNCTION     0.75     1.05     6.90     0  02:43        1.01
  WS02004405           JUNCTION     0.74     0.97     6.82     0  02:36        0.97
  WS02004406           JUNCTION     0.75     0.96     6.79     0  02:32        0.96
  WS02004407           JUNCTION     0.19     0.30     6.61     0  02:32        0.30
  WS02004409           JUNCTION     0.42     0.67     6.44     0  02:36        0.67
  WS02004410           JUNCTION     0.44     0.68     6.40     0  02:37        0.68
  WS02004411           JUNCTION     0.46     0.69     6.37     0  02:37        0.69
  WS02004412           JUNCTION     0.48     0.70     6.34     0  02:37        0.70
  WS02004413           JUNCTION     0.64     0.86     6.33     0  02:38        0.86
  WS02006109           JUNCTION     0.68     1.14     7.76     0  01:52        1.01
  WS02006110           JUNCTION     0.68     1.15     7.73     0  02:01        0.95
  WS02006111           JUNCTION     0.19     0.29     6.99     0  03:21        0.29
  WS02006112           JUNCTION     0.78     1.11     7.00     0  01:53        1.08
  WS02006113           JUNCTION     0.29     0.46     7.35     0  03:14        0.46
  WS02006115           JUNCTION     0.51     0.78     6.92     0  02:46        0.78
  WS02006116           JUNCTION     0.59     0.86     6.90     0  02:39        0.86
  WS02006228           JUNCTION     0.68     1.13     7.78     0  02:01        1.10
  WS02006229           JUNCTION     0.66     1.14     7.84     0  02:00        1.13
  WS02006230           JUNCTION     0.67     1.31     8.05     0  02:00        1.25
  WS02006231           JUNCTION     0.47     1.18     8.30     0  03:05        1.02
  WS02006232           JUNCTION     0.61     1.26     8.29     0  01:52        1.18
  WS02006234           JUNCTION     0.55     1.29     8.45     0  01:52        1.18
  WS02006235           JUNCTION     0.59     1.38     8.55     0  01:52        1.28
  WS02006238           JUNCTION     0.62     1.42     8.56     0  01:52        1.42
  WS02006239           JUNCTION     0.59     1.61     8.82     0  03:06        1.61
  WS02006240           JUNCTION     0.56     1.64     8.94     0  03:06        1.64
  WS02006242           JUNCTION     0.63     1.55     8.82     0  03:06        1.55
  WS02006243           JUNCTION     0.55     1.48     8.90     0  03:06        1.48
  WS02006245           JUNCTION     0.55     1.42     8.90     0  03:06        1.42
  WS02006247           JUNCTION     0.57     1.31     8.81     0  03:06        1.31
  WS02006248           JUNCTION     0.53     1.10     8.69     0  01:47        1.10
  WS02006249           JUNCTION     0.56     1.09     8.69     0  01:39        1.09
  WS02006251           JUNCTION     0.56     1.60     9.27     0  03:16        1.22
  WS02006252           JUNCTION     0.38     1.50     9.74     0  00:00        0.79
  WS02006256           JUNCTION     1.10     2.35     9.28     0  00:00        2.35
  WSF200               JUNCTION     0.18     0.29     5.53     0  02:37        0.29
  YS02001580           JUNCTION     0.15     1.05     9.59     0  01:51        0.82
  YS02001583           JUNCTION     0.18     0.98     9.47     0  01:51        0.83
  YS02001586           JUNCTION     0.29     1.13     9.30     0  01:51        1.13
  YS02001590           JUNCTION     0.40     1.39     9.25     0  01:51        1.38
  YS02001593           JUNCTION     0.33     1.33     9.19     0  01:51        1.29
  YS02001596           JUNCTION     0.45     1.68     9.10     0  01:51        1.66
  YS02001600           JUNCTION     0.55     1.87     9.00     0  01:51        1.87
  YS02001601           JUNCTION     0.75     2.06     8.90     0  01:50        2.06
  YS02001602           JUNCTION     0.64     1.87     8.77     0  01:55        1.87
  YS02001605           JUNCTION     0.60     1.78     8.68     0  02:45        1.78
  YS02001607           JUNCTION     0.57     1.65     8.50     0  02:34        1.65
  YS02001610           JUNCTION     0.61     1.68     8.48     0  01:57        1.68
  YS02001613           JUNCTION     0.57     1.68     8.52     0  02:31        1.67
  YS02001616           JUNCTION     0.50     1.61     8.52     0  02:10        1.61
  YS02001619           JUNCTION     0.48     1.61     8.54     0  02:09        1.61
  YS02001622           JUNCTION     0.47     1.59     8.49     0  02:31        1.59
  YS02001625           JUNCTION     0.72     1.78     8.38     0  01:57        1.78
  YS02001629           JUNCTION     0.61     1.85     8.40     0  01:59        1.85
  YS02001633           JUNCTION     0.69     2.08     8.53     0  02:10        2.08
  YS02001641           JUNCTION     0.67     1.96     8.39     0  02:11        1.95
  YS02001644           JUNCTION     0.66     1.92     8.35     0  02:02        1.92
  YS02001647           JUNCTION     0.44     1.78     8.39     0  02:10        1.78
  YS02001649           JUNCTION     0.51     2.05     8.44     0  02:10        2.05
  YS02001652           JUNCTION     0.39     1.89     8.49     0  02:11        1.88
  YS02001655           JUNCTION     0.31     1.73     8.58     0  02:12        1.72
  YS02001658           JUNCTION     0.23     1.53     8.67     0  02:12        1.52
  YS02001661           JUNCTION     0.23     1.35     8.76     0  02:13        1.35
  YS02001664           JUNCTION     0.09     0.88     8.80     0  02:13        0.87
  YS02001745           JUNCTION     0.13     0.99     8.51     0  02:12        0.99
  YS02001748           JUNCTION     0.22     1.41     8.49     0  02:12        1.41
  YS02001751           JUNCTION     0.27     1.58     8.45     0  02:12        1.58
  YS02001754           JUNCTION     0.35     1.83     8.44     0  02:10        1.83
  YS02001757           JUNCTION     0.54     2.18     8.44     0  02:10        2.18
  YS02001759           JUNCTION     0.48     2.21     8.57     0  02:10        2.21
  YS02001762           JUNCTION     0.47     2.09     8.49     0  02:10        2.09
  YS02001765           JUNCTION     0.44     2.06     8.51     0  02:10        2.06
  YS02001767           JUNCTION     0.44     2.02     8.51     0  02:10        2.02
  YS02001770           JUNCTION     0.45     1.95     8.44     0  02:10        1.95
  YS02001774           JUNCTION     0.51     2.01     8.43     0  02:11        2.01
  YS02001779           JUNCTION     0.33     1.68     8.37     0  01:57        1.68
  YS02001783           JUNCTION     0.32     1.27     7.41     0  02:10        1.25
  YS02001784           JUNCTION     0.33     1.14     7.21     0  02:10        1.12
  YS02001786           JUNCTION     0.27     0.89     6.92     0  02:10        0.88
  YS02001788           JUNCTION     0.20     0.63     6.60     0  02:12        0.62
  YS02001790           JUNCTION     0.23     0.73     6.37     0  02:08        0.72
  YS02001791           JUNCTION     0.14     0.44     5.91     0  02:08        0.43
  YS02001793           JUNCTION     0.08     0.29     5.12     0  02:15        0.29
  YS02001882           JUNCTION     0.40     1.77     8.49     0  02:10        1.77
  YS02001884           JUNCTION     0.50     1.87     8.49     0  02:10        1.87
  YS02001887           JUNCTION     0.57     1.99     8.53     0  02:10        1.99
  YS02001890           JUNCTION     0.60     1.81     8.32     0  02:02        1.81
  YS02001895           JUNCTION     0.37     1.58     8.33     0  02:31        1.57
  YS02001898           JUNCTION     0.38     1.59     8.32     0  02:31        1.57
  YS02001901           JUNCTION     0.49     1.69     8.30     0  02:31        1.69
  YS02001904           JUNCTION     0.47     1.65     8.28     0  02:11        1.65
  YS02001907           JUNCTION     0.79     1.96     8.25     0  01:59        1.96
  YS02001910           JUNCTION     0.60     2.02     8.52     0  02:10        2.02
  YS02001915           JUNCTION     0.41     2.00     8.72     0  02:10        2.00
  YS02001918           JUNCTION     0.25     1.73     8.80     0  02:12        1.73
  YS02001920           JUNCTION     0.32     1.83     8.83     0  02:12        1.83
  YS02001923           JUNCTION     0.19     1.60     8.86     0  02:13        1.59
  YS02001926           JUNCTION     0.22     1.44     8.88     0  02:13        1.44
  YS02001929           JUNCTION     0.14     1.22     8.92     0  02:13        1.22
  YS02006553           JUNCTION     0.79     2.05     8.33     0  02:10        2.05
  YS02006556           JUNCTION     0.76     2.09     8.40     0  02:10        2.09
  YS02006558           JUNCTION     0.81     2.19     8.46     0  02:10        2.19
  YS02006561           JUNCTION     0.20     0.96     7.62     0  02:10        0.92
  YS02163301           JUNCTION     0.63     1.95     8.47     0  02:11        1.95
  YS02163601           JUNCTION     0.72     2.07     8.46     0  02:11        2.07
  YS02164001           JUNCTION     0.66     1.97     8.43     0  02:11        1.97
  CC-1                 OUTFALL      0.00     0.00     0.00     0  00:00        0.00
  CC-2                 OUTFALL      0.00     0.00     0.00     0  00:00        0.00
  JK-1                 OUTFALL      0.00     0.00     0.00     0  00:00        0.00
  JK-2                 OUTFALL      0.00     0.00     0.00     0  00:00        0.00
  WSC                  OUTFALL      0.19     0.30     0.97     0  02:40        0.30
  CC-storage           STORAGE      0.97     1.97     7.47     0  02:43        1.97
  JK-storage           STORAGE      1.98     4.24     5.04     0  02:13        4.22
  
  
  *******************
  Node Inflow Summary
  *******************
  
  -------------------------------------------------------------------------------------------------
                                  Maximum  Maximum                  Lateral       Total        Flow
                                  Lateral    Total  Time of Max      Inflow      Inflow     Balance
                                   Inflow   Inflow   Occurrence      Volume      Volume       Error
  Node                 Type           LPS      LPS  days hr:min    10^6 ltr    10^6 ltr     Percent
  -------------------------------------------------------------------------------------------------
  WS02003060           JUNCTION     16.53   557.32     0  02:37       0.476        6.21       0.041
  WS02003066           JUNCTION      0.00   540.65     0  02:37           0        5.73       0.025
  WS02003067           JUNCTION      0.00   540.60     0  02:38           0        5.74       0.076
  WS02003069           JUNCTION      0.32   557.67     0  02:38     0.00922        6.21       0.071
  WS02003072           JUNCTION      0.00   557.56     0  02:39           0        6.21       0.121
  WS02003073           JUNCTION      1.82   559.31     0  02:39      0.0524        6.25       0.100
  WS02004401           JUNCTION      0.00   541.19     0  02:40           0        5.83       0.181
  WS02004402           JUNCTION      0.00   542.47     0  02:40           0        5.82       0.184
  WS02004403           JUNCTION      0.00   542.30     0  02:50           0        5.81       0.177
  WS02004404           JUNCTION      0.16   564.82     0  02:41     0.00467         5.8       0.030
  WS02004405           JUNCTION      0.04   611.12     0  02:41      0.0011         5.8       0.167
  WS02004406           JUNCTION      0.00   549.32     0  02:36           0        5.79       0.365
  WS02004407           JUNCTION      0.00   541.78     0  02:32           0        5.77       0.024
  WS02004409           JUNCTION      0.00   541.19     0  02:32           0        5.77       0.054
  WS02004410           JUNCTION      0.00   541.04     0  02:33           0        5.77       0.083
  WS02004411           JUNCTION      0.00   540.81     0  02:37           0        5.76       0.104
  WS02004412           JUNCTION      0.00   540.86     0  02:36           0        5.76       0.137
  WS02004413           JUNCTION      0.00   540.70     0  02:37           0        5.75       0.240
  WS02006109           JUNCTION      1.23   555.58     0  01:52      0.0354        5.88       0.074
  WS02006110           JUNCTION      0.00   556.48     0  01:52           0        5.87       0.122
  WS02006111           JUNCTION      0.00   561.83     0  03:07           0        5.86       0.019
  WS02006112           JUNCTION      0.00   543.00     0  03:21           0        5.86       0.310
  WS02006113           JUNCTION      0.00   570.69     0  01:53           0        5.87       0.035
  WS02006115           JUNCTION      0.00   552.42     0  01:53           0        5.84       0.119
  WS02006116           JUNCTION      0.00   541.58     0  02:56           0        5.84       0.106
  WS02006228           JUNCTION      0.00   555.12     0  01:52           0        5.84       0.041
  WS02006229           JUNCTION      0.00   557.31     0  03:06           0        5.85       0.089
  WS02006230           JUNCTION     10.28   588.95     0  03:12       0.296        5.85       0.087
  WS02006231           JUNCTION      0.00   582.89     0  03:16           0        5.56      -0.025
  WS02006232           JUNCTION      0.00   582.02     0  03:16           0        5.57       0.196
  WS02006234           JUNCTION      0.00   576.66     0  03:16           0        5.55      -0.238
  WS02006235           JUNCTION      0.00   568.44     0  03:16           0        5.64       0.291
  WS02006238           JUNCTION      0.00   425.32     0  03:10           0        4.48      -0.166
  WS02006239           JUNCTION      0.00   423.62     0  03:10           0        4.43      -0.137
  WS02006240           JUNCTION      0.00   420.38     0  03:10           0        4.39      -0.102
  WS02006242           JUNCTION      0.00   420.25     0  03:10           0        4.39       0.000
  WS02006243           JUNCTION      0.00   419.90     0  03:10           0        4.38      -0.121
  WS02006245           JUNCTION      0.00   420.68     0  03:10           0         4.4       0.403
  WS02006247           JUNCTION      0.00   420.76     0  03:10           0         4.4       0.006
  WS02006248           JUNCTION      0.00   420.90     0  03:10           0         4.4       0.065
  WS02006249           JUNCTION      0.00   465.97     0  04:50           0        4.75       0.335
  WS02006251           JUNCTION      0.08   408.66     0  01:48     0.00222        4.75       0.041
  WS02006252           JUNCTION      0.00   400.00     0  00:00           0        4.74      -0.243
  WS02006256           JUNCTION      0.00   300.00     0  00:00           0        1.72      -1.339
  WSF200               JUNCTION      0.00   540.69     0  02:37           0        5.73       0.010
  YS02001580           JUNCTION      0.00    57.57     0  01:50           0     0.00421      -0.420
  YS02001583           JUNCTION      0.00    97.18     0  01:50           0       0.016      -2.794
  YS02001586           JUNCTION   1179.60  1179.63     0  02:15        2.76        2.77       0.035
  YS02001590           JUNCTION      0.00   318.50     0  02:31           0        1.78      -0.022
  YS02001593           JUNCTION      0.00   318.06     0  02:14           0        1.78       0.008
  YS02001596           JUNCTION      0.00   318.00     0  02:41           0        1.78      -0.007
  YS02001600           JUNCTION      0.00   318.04     0  02:00           0        1.78       0.015
  YS02001601           JUNCTION   1981.83  2299.24     0  02:14        3.72         5.5       0.018
  YS02001602           JUNCTION      0.00   496.56     0  01:50           0        2.85       0.019
  YS02001605           JUNCTION      0.00   495.97     0  01:50           0        2.64       0.029
  YS02001607           JUNCTION      0.00   495.53     0  01:50           0        2.64       0.078
  YS02001610           JUNCTION      0.00   954.73     0  02:20           0        3.31       0.074
  YS02001613           JUNCTION      0.00   618.36     0  02:19           0        2.51       0.070
  YS02001616           JUNCTION      0.00   618.76     0  02:17           0        2.51       0.017
  YS02001619           JUNCTION   2080.07  2080.07     0  02:14        4.44        6.28      -0.001
  YS02001622           JUNCTION      0.00  1053.98     0  02:16           0        5.47       0.002
  YS02001625           JUNCTION      0.00  1505.46     0  02:19           0        5.99       0.177
  YS02001629           JUNCTION      0.00   915.48     0  01:55           0        4.11      -0.003
  YS02001633           JUNCTION   1488.94  1488.94     0  02:14        2.74         6.2       0.057
  YS02001641           JUNCTION      0.00  1284.43     0  01:56           0        5.56       0.051
  YS02001644           JUNCTION   1322.13  2474.77     0  02:13        2.38        8.04       0.041
  YS02001647           JUNCTION      0.00  1637.34     0  01:57           0        6.53       0.006
  YS02001649           JUNCTION      0.00  1863.02     0  01:59           0        8.62       0.001
  YS02001652           JUNCTION      0.00  1301.14     0  02:13           0         2.2      -0.045
  YS02001655           JUNCTION      0.15  1300.58     0  02:13     0.00443         2.2       0.004
  YS02001658           JUNCTION      0.00  1300.29     0  02:13           0         2.2      -0.017
  YS02001661           JUNCTION      0.00  1300.15     0  02:13           0         2.2      -0.002
  YS02001664           JUNCTION   1291.54  1291.54     0  02:13        2.19        2.19      -0.006
  YS02001745           JUNCTION    801.72   801.72     0  02:13        1.31        1.31       0.102
  YS02001748           JUNCTION      0.04   808.82     0  02:13      0.0013        1.31      -0.156
  YS02001751           JUNCTION      0.01   808.91     0  02:13    0.000317        1.32       0.011
  YS02001754           JUNCTION      0.26   810.06     0  02:13     0.00749        1.33      -0.113
  YS02001757           JUNCTION      0.00  3021.81     0  02:10           0        13.6       0.017
  YS02001759           JUNCTION   1116.39  1337.14     0  02:12        1.82        3.82      -0.007
  YS02001762           JUNCTION      0.00   695.95     0  02:05           0           2       0.002
  YS02001765           JUNCTION      0.00   696.64     0  02:04           0           2       0.008
  YS02001767           JUNCTION      0.54   696.07     0  02:04      0.0154           2       0.011
  YS02001770           JUNCTION   1582.55  1582.55     0  02:13        2.75         2.8      -0.010
  YS02001774           JUNCTION      0.00   852.09     0  02:16           0       0.714       0.184
  YS02001779           JUNCTION      0.01   851.62     0  02:15    0.000144       0.665      -0.014
  YS02001783           JUNCTION      0.00  1175.20     0  02:12           0         5.5       0.004
  YS02001784           JUNCTION      1.06  1175.45     0  02:12      0.0305        5.53       0.009
  YS02001786           JUNCTION      0.06  1175.76     0  02:12     0.00162        5.53       0.013
  YS02001788           JUNCTION      0.07  1176.09     0  02:12     0.00204        5.53       0.006
  YS02001790           JUNCTION      0.15  1181.69     0  02:13     0.00446        5.54       0.023
  YS02001791           JUNCTION      0.00  1298.77     0  02:08           0        5.54      -0.037
  YS02001793           JUNCTION      0.00  1264.33     0  02:12           0        5.54       0.002
  YS02001882           JUNCTION      0.00    40.41     0  01:55           0      0.0146       4.864
  YS02001884           JUNCTION      0.00    35.21     0  01:54           0      0.0516       5.054
  YS02001887           JUNCTION   1186.67  1186.67     0  02:13        1.88        1.91       0.232
  YS02001890           JUNCTION      0.00  1186.68     0  02:13           0        1.87       0.274
  YS02001895           JUNCTION      0.00   518.63     0  02:19           0        1.56       0.115
  YS02001898           JUNCTION      0.00   518.38     0  02:20           0        1.56       0.008
  YS02001901           JUNCTION      0.00   518.53     0  02:20           0        1.56       0.215
  YS02001904           JUNCTION      0.00   518.24     0  02:19           0        1.56       0.176
  YS02001907           JUNCTION      0.00  2965.35     0  02:13           0        5.75       0.320
  YS02001910           JUNCTION      0.00  1993.14     0  02:14           0        4.06       0.178
  YS02001915           JUNCTION   1429.30  2140.44     0  02:14        2.62         4.1       0.037
  YS02001918           JUNCTION      0.00   714.50     0  02:14           0        1.49       0.001
  YS02001920           JUNCTION      2.87   713.75     0  02:14      0.0827        1.48       0.059
  YS02001923           JUNCTION      0.04   709.94     0  02:14     0.00109        1.39      -0.021
  YS02001926           JUNCTION      0.05   708.93     0  02:14      0.0015        1.38       0.014
  YS02001929           JUNCTION    707.99   707.99     0  02:14        1.38        1.38      -0.021
  YS02006553           JUNCTION      0.00   798.23     0  02:36           0        3.05       0.394
  YS02006556           JUNCTION      0.00   798.35     0  02:36           0        3.06       0.259
  YS02006558           JUNCTION   1622.29  1622.29     0  02:13        2.76        5.66       0.062
  YS02006561           JUNCTION      0.00  1173.63     0  02:12           0         5.5       0.000
  YS02163301           JUNCTION      0.00   914.79     0  01:55           0        4.12       0.037
  YS02163601           JUNCTION      0.11  1285.01     0  01:56     0.00317        5.55       0.089
  YS02164001           JUNCTION      0.00  1284.77     0  01:56           0        5.55       0.037
  CC-1                 OUTFALL       0.00   683.00     0  00:00           0        4.73       0.000
  CC-2                 OUTFALL       0.00   683.00     0  00:00           0        5.04       0.000
  JK-1                 OUTFALL       0.00  1000.00     0  00:00           0        2.27       0.000
  JK-2                 OUTFALL       0.00  1000.00     0  00:00           0        1.67       0.000
  WSC                  OUTFALL       0.00   559.16     0  02:40           0        6.25       0.000
  CC-storage           STORAGE       0.00  3025.33     0  02:10           0        15.9      -0.186
  JK-storage           STORAGE       0.00  1259.78     0  02:13           0        5.69      -0.304
  
  
  **********************
  Node Surcharge Summary
  **********************
  
  Surcharging occurs when water rises above the top of the highest conduit.
  ---------------------------------------------------------------------
                                               Max. Height   Min. Depth
                                   Hours       Above Crown    Below Rim
  Node                 Type      Surcharged         Meters       Meters
  ---------------------------------------------------------------------
  WS02004404           JUNCTION        0.12          0.054        2.726
  WS02006109           JUNCTION        2.61          0.323        1.497
  WS02006110           JUNCTION        1.20          0.240        1.610
  WS02006112           JUNCTION        1.33          0.113        1.567
  WS02006228           JUNCTION        2.59          0.304        1.896
  WS02006229           JUNCTION        2.62          0.344        2.106
  WS02006230           JUNCTION        1.21          0.226        1.344
  WS02006231           JUNCTION        1.29          0.466        1.064
  WS02006232           JUNCTION        2.71          0.555        0.925
  WS02006234           JUNCTION        1.51          0.574        0.666
  WS02006235           JUNCTION        2.60          0.673        0.617
  WS02006238           JUNCTION        2.66          0.699        0.731
  WS02006239           JUNCTION        2.58          0.871        0.419
  WS02006240           JUNCTION        2.59          0.934        0.456
  WS02006242           JUNCTION        2.65          0.820        0.000
  WS02006243           JUNCTION        2.59          0.770        0.000
  WS02006245           JUNCTION        2.58          0.710        0.140
  WS02006247           JUNCTION        2.58          0.598        0.162
  WS02006248           JUNCTION        2.56          0.380        0.000
  WS02006249           JUNCTION        2.56          0.390        0.000
  WS02006251           JUNCTION        1.33          0.573        0.607
  WS02006252           JUNCTION        3.04          1.100        0.000
  WS02006256           JUNCTION        7.00          2.050        0.000
  YS02001580           JUNCTION        1.01          0.450        0.000
  YS02001583           JUNCTION        1.02          0.339        0.161
  YS02001586           JUNCTION        1.20          0.510        0.000
  YS02001590           JUNCTION        1.28          0.741        0.009
  YS02001593           JUNCTION        1.28          0.713        0.127
  YS02001596           JUNCTION        1.40          0.951        0.119
  YS02001600           JUNCTION        1.56          1.190        0.000
  YS02001601           JUNCTION        1.87          1.440        0.000
  YS02001602           JUNCTION        1.78          1.270        0.000
  YS02001605           JUNCTION        1.74          1.180        0.000
  YS02001607           JUNCTION        1.28          0.647        0.033
  YS02001610           JUNCTION        1.30          0.680        0.000
  YS02001613           JUNCTION        1.27          0.675        0.025
  YS02001616           JUNCTION        1.23          0.610        0.000
  YS02001619           JUNCTION        1.22          0.610        0.000
  YS02001622           JUNCTION        1.22          0.591        0.029
  YS02001625           JUNCTION        1.40          0.780        0.000
  YS02001629           JUNCTION        1.16          0.470        0.000
  YS02001633           JUNCTION        1.44          1.060        0.000
  YS02001641           JUNCTION        1.39          0.956        0.144
  YS02001644           JUNCTION        1.36          0.920        0.000
  YS02001647           JUNCTION        1.13          0.782        0.118
  YS02001649           JUNCTION        1.24          1.050        0.000
  YS02001652           JUNCTION        1.08          0.864        0.266
  YS02001655           JUNCTION        0.91          0.729        0.471
  YS02001658           JUNCTION        0.52          0.526        0.774
  YS02001661           JUNCTION        0.17          0.281        1.109
  YS02001748           JUNCTION        0.41          0.331        0.859
  YS02001751           JUNCTION        0.75          0.576        0.624
  YS02001754           JUNCTION        1.03          0.783        0.367
  YS02001757           JUNCTION        1.31          1.180        0.030
  YS02001759           JUNCTION        1.23          1.210        0.000
  YS02001762           JUNCTION        1.20          1.095        0.055
  YS02001765           JUNCTION        1.16          1.057        0.043
  YS02001767           JUNCTION        1.13          1.021        0.009
  YS02001770           JUNCTION        1.11          0.920        0.000
  YS02001774           JUNCTION        1.19          1.007        0.043
  YS02001779           JUNCTION        1.01          0.680        0.000
  YS02001783           JUNCTION        0.85          0.472        1.128
  YS02001784           JUNCTION        0.82          0.344        1.146
  YS02001786           JUNCTION        0.67          0.092        1.338
  YS02001882           JUNCTION        0.77          0.774        0.056
  YS02001884           JUNCTION        0.78          0.813        0.057
  YS02001887           JUNCTION        0.83          0.942        0.008
  YS02001890           JUNCTION        0.85          0.760        0.000
  YS02001895           JUNCTION        0.76          0.579        0.171
  YS02001898           JUNCTION        0.75          0.556        0.184
  YS02001901           JUNCTION        0.81          0.692        0.178
  YS02001904           JUNCTION        0.80          0.647        0.203
  YS02001907           JUNCTION        1.19          0.950        0.000
  YS02001910           JUNCTION        0.89          1.017        0.083
  YS02001915           JUNCTION        0.77          1.000        0.000
  YS02001918           JUNCTION        0.66          0.733        0.077
  YS02001920           JUNCTION        0.67          0.825        0.315
  YS02001923           JUNCTION        0.25          0.385        0.435
  YS02001926           JUNCTION        0.29          0.439        0.461
  YS02001929           JUNCTION        0.12          0.223        0.557
  YS02006553           JUNCTION        1.22          1.050        0.140
  YS02006556           JUNCTION        1.03          1.048        0.302
  YS02006558           JUNCTION        1.00          1.090        0.310
  YS02006561           JUNCTION        0.62          0.156        0.994
  YS02163301           JUNCTION        1.41          0.953        0.077
  YS02163601           JUNCTION        1.49          1.067        0.013
  YS02164001           JUNCTION        1.39          0.968        0.132
  
  
  *********************
  Node Flooding Summary
  *********************
  
  Flooding refers to all water that overflows a node, whether it ponds or not.
  --------------------------------------------------------------------------
                                                             Total   Maximum
                                 Maximum   Time of Max       Flood    Ponded
                        Hours       Rate    Occurrence      Volume     Depth
  Node                 Flooded       LPS   days hr:min    10^6 ltr    Meters
  --------------------------------------------------------------------------
  WS02006242              0.01      0.81      0  03:06       0.000     0.000
  WS02006243              0.01      0.29      0  03:06       0.000     0.000
  WS02006248              0.01     16.27      0  01:47       0.000     0.000
  WS02006249              1.32    111.31      0  01:48       0.329     0.000
  WS02006252              0.01    245.63      0  00:00       0.000     0.000
  WS02006256              1.59    293.19      0  00:00       0.573     0.000
  YS02001580              0.01     20.89      0  01:51       0.000     0.000
  YS02001586              0.81    862.05      0  02:15       0.982     0.000
  YS02001600              0.01      1.34      0  01:51       0.000     0.000
  YS02001601              1.13   1901.33      0  02:14       2.657     0.000
  YS02001602              0.98     62.20      0  02:31       0.204     0.000
  YS02001605              0.01      0.10      0  02:45       0.000     0.000
  YS02001610              0.88    954.20      0  02:19       1.469     0.000
  YS02001616              0.05     11.76      0  02:31       0.000     0.000
  YS02001619              0.17    413.99      0  02:14       0.141     0.000
  YS02001625              0.85   1505.21      0  02:19       2.518     0.000
  YS02001629              0.23    332.87      0  02:14       0.127     0.000
  YS02001633              0.01      1.50      0  02:10       0.000     0.000
  YS02001644              0.42   2474.71      0  02:13       1.608     0.000
  YS02001649              0.01      0.45      0  02:10       0.000     0.000
  YS02001759              0.01      1.21      0  02:10       0.000     0.000
  YS02001770              0.12    526.03      0  02:13       0.121     0.000
  YS02001779              0.36    851.36      0  02:16       0.644     0.000
  YS02001890              0.31    670.36      0  02:13       0.307     0.000
  YS02001907              0.58   2964.76      0  02:13       2.817     0.000
  YS02001915              0.07    148.42      0  02:14       0.021     0.000
  
  
  **********************
  Storage Volume Summary
  **********************
  
  ------------------------------------------------------------------------------------------------
                         Average    Avg   Evap  Exfil     Maximum    Max    Time of Max    Maximum
                          Volume   Pcnt   Pcnt   Pcnt      Volume   Pcnt     Occurrence    Outflow
  Storage Unit           1000 m³   Full   Loss   Loss     1000 m³   Full    days hr:min        LPS
  ------------------------------------------------------------------------------------------------
  CC-storage               2.708   42.3    0.0    0.0       5.477   85.4       0  02:43    1783.53
  JK-storage               0.100   34.2    0.0    0.0       0.213   73.0       0  02:13    2300.00
  
  
  ***********************
  Outfall Loading Summary
  ***********************
  
  -----------------------------------------------------------
                         Flow       Avg       Max       Total
                         Freq      Flow      Flow      Volume
  Outfall Node           Pcnt       LPS       LPS    10^6 ltr
  -----------------------------------------------------------
  CC-1                  29.88    683.00    683.00       4.728
  CC-2                  38.05    683.00    683.00       5.044
  JK-1                  10.79   1000.00   1000.00       2.272
  JK-2                   8.32   1000.00   1000.00       1.672
  WSC                   99.95    284.35    559.16       6.246
  -----------------------------------------------------------
  System                37.40   3650.35   3925.16      19.963
  
  
  ********************
  Link Flow Summary
  ********************
  
  -----------------------------------------------------------------------------
                                 Maximum  Time of Max   Maximum    Max/    Max/
                                  |Flow|   Occurrence   |Veloc|    Full    Full
  Link                 Type          LPS  days hr:min     m/sec    Flow   Depth
  -----------------------------------------------------------------------------
  1                    CONDUIT    559.16     0  02:40      2.83    0.19    0.30
  WS02003060WS02003069 CONDUIT    557.35     0  02:38      1.64    0.22    0.34
  WS02003066WSF200     CONDUIT    540.69     0  02:37      2.86    0.09    0.22
  WS02003067WS02003066 CONDUIT    540.65     0  02:37      1.21    0.17    0.42
  WS02003069WS02003072 CONDUIT    557.56     0  02:39      1.37    0.27    0.39
  WS02003072WS02003073 CONDUIT    557.48     0  02:39      1.44    1.20    0.37
  WS02004401WS02004402 CONDUIT    542.47     0  02:40      0.98    0.65    0.89
  WS02004402WS02004403 CONDUIT    542.30     0  02:50      0.97    0.78    0.91
  WS02004403WS02004404 CONDUIT    564.66     0  02:41      0.92    0.41    0.96
  WS02004404WS02004405 CONDUIT    611.08     0  02:41      1.08    5.99    0.98
  WS02004405WS02004406 CONDUIT    549.32     0  02:36      0.99    1.08    0.96
  WS02004406WS02004407 CONDUIT    541.78     0  02:32      1.04    0.24    0.63
  WS02004407WS02004409 CONDUIT    541.19     0  02:32      1.47    0.19    0.48
  WS02004409WS02004410 CONDUIT    541.04     0  02:33      0.96    0.70    0.68
  WS02004410WS02004411 CONDUIT    540.81     0  02:37      0.94    0.74    0.69
  WS02004411WS02004412 CONDUIT    540.86     0  02:36      0.93    0.77    0.70
  WS02004412WS02004413 CONDUIT    540.70     0  02:37      0.82    0.36    0.78
  WS02004413WS02003067 CONDUIT    540.60     0  02:38      1.11    0.23    0.59
  WS02006109WS02006110 CONDUIT    556.48     0  01:52      1.11    1.07    1.00
  WS02006110WS02006113 CONDUIT    570.69     0  01:53      1.37    0.52    0.79
  WS02006111WS02006112 CONDUIT    543.00     0  03:21      1.81    0.26    0.67
  WS02006112WS02006115 CONDUIT    552.42     0  01:53      0.79    0.33    0.88
  WS02006113WS02006111 CONDUIT    561.83     0  03:07      2.47    0.67    0.46
  WS02006115WS02006116 CONDUIT    541.58     0  02:56      1.01    0.70    0.79
  WS02006116WS02004401 CONDUIT    541.19     0  02:40      0.98    0.75    0.87
  WS02006228WS02006109 CONDUIT    554.35     0  01:52      1.10    2.42    1.00
  WS02006229WS02006228 CONDUIT    555.12     0  01:52      1.14    1.84    1.00
  WS02006230WS02006229 CONDUIT    557.31     0  03:06      1.45   12.40    1.00
  WS02006231WS02006230 CONDUIT    578.67     0  03:12      1.58    8.78    1.00
  WS02006232WS02006231 CONDUIT    582.89     0  03:16      1.52    1.22    1.00
  WS02006234WS02006232 CONDUIT    582.02     0  03:16      1.51    1.18    1.00
  WS02006235WS02006234 CONDUIT    576.66     0  03:16      1.50    6.08    1.00
  WS02006238WS02006235 CONDUIT    424.15     0  03:10      1.45    0.95    1.00
  WS02006239WS02006238 CONDUIT    425.32     0  03:10      1.18    1.36    1.00
  WS02006240WS02006239 CONDUIT    423.62     0  03:10      1.27    1.33    1.00
  WS02006242WS02006240 CONDUIT    420.38     0  03:10      1.17    1.67    1.00
  WS02006243WS02006242 CONDUIT    420.25     0  03:10      1.43    0.90    1.00
  WS02006245WS02006243 CONDUIT    419.90     0  03:10      1.45    1.24    1.00
  WS02006247WS02006245 CONDUIT    420.68     0  03:10      1.43    3.34    1.00
  WS02006248WS02006247 CONDUIT    420.76     0  03:10      1.44    0.92    1.00
  WS02006249WS02006248 CONDUIT    420.90     0  03:10      1.39    2.31    1.00
  WS02006251WS02006249 CONDUIT    465.97     0  04:50      1.99    1.34    1.00
  WS02006252WS02006251 CONDUIT    408.58     0  01:48     24.61    1.50    1.00
  WS02006256WS02006235 CONDUIT    288.91     0  00:00      4.23    3.06    1.00
  WSF200WS02003060     CONDUIT    540.79     0  02:37      2.06    0.12    0.28
  YS02001580YS02001583 CONDUIT     57.57     0  01:50      0.46    0.22    1.00
  YS02001583YS02001586 CONDUIT     97.18     0  01:50      0.39    0.15    1.00
  YS02001586YS02001590 CONDUIT    318.50     0  02:31      1.23    0.56    1.00
  YS02001590YS02001593 CONDUIT    318.06     0  02:14      1.12    2.00    1.00
  YS02001593YS02001596 CONDUIT    318.00     0  02:41      1.71    0.50    1.00
  YS02001596YS02001600 CONDUIT    318.04     0  02:00      1.27    0.62    1.00
  YS02001600YS02001601 CONDUIT    318.09     0  02:41      1.13    0.55    1.00
  YS02001601YS02001602 CONDUIT    496.56     0  01:50      1.76    1.79    1.00
  YS02001602YS02001605 CONDUIT    495.97     0  01:50      1.75   10.50    1.00
  YS02001605YS02001607 CONDUIT    495.53     0  01:50      1.75    2.72    1.00
  YS02001607YS02001610 CONDUIT    496.10     0  01:50      0.63    0.47    1.00
  YS02001610YS02001613 CONDUIT    618.34     0  02:17      0.79    0.71    1.00
  YS02001613YS02001616 CONDUIT    618.36     0  02:19      0.79    0.53    1.00
  YS02001616YS02001619 CONDUIT    618.76     0  02:17      0.79    1.07    1.00
  YS02001619YS02001622 CONDUIT   1053.98     0  02:16      1.34    1.55    1.00
  YS02001622YS02001625 CONDUIT   1053.70     0  02:19      1.34    0.56    1.00
  YS02001625YS02001629 CONDUIT    915.48     0  01:55      1.17    0.44    1.00
  YS02001629YS02163301 CONDUIT    914.79     0  01:55      1.16    1.13    1.00
  YS02001633YS02163601 CONDUIT   1284.90     0  01:56      1.64    1.35    1.00
  YS02001641YS02001644 CONDUIT   1284.79     0  01:56      1.64    4.15    1.00
  YS02001644YS02001647 CONDUIT   1637.34     0  01:57      2.12    0.96    1.00
  YS02001647YS02001649 CONDUIT   1637.13     0  01:57      2.25    0.86    1.00
  YS02001649YS02001757 CONDUIT   1860.86     0  01:59      2.40    1.13    1.00
  YS02001652YS02001649 CONDUIT   1300.80     0  02:13      1.66    0.64    1.00
  YS02001655YS02001652 CONDUIT   1301.14     0  02:13      1.66    0.63    1.00
  YS02001658YS02001655 CONDUIT   1300.43     0  02:13      1.78    0.55    1.00
  YS02001661YS02001658 CONDUIT   1300.29     0  02:13      2.15    0.51    1.00
  YS02001664YS02001661 CONDUIT   1300.15     0  02:13      2.06    0.41    0.94
  YS02001745YS02001748 CONDUIT    808.78     0  02:13      1.99    0.31    1.00
  YS02001748YS02001751 CONDUIT    808.90     0  02:13      1.57    0.41    1.00
  YS02001751YS02001754 CONDUIT    809.80     0  02:13      1.36    0.39    1.00
  YS02001754YS02001757 CONDUIT    810.52     0  02:13      1.03    0.33    1.00
  YS02001757CaochengTiaoxuchi CONDUIT   3025.33     0  02:10      3.85    1.31    1.00
  YS02001759YS02001757 CONDUIT   1337.93     0  02:12      1.70    0.95    1.00
  YS02001762YS02001759 CONDUIT    696.75     0  02:05      0.89    0.80    1.00
  YS02001765YS02001762 CONDUIT    695.95     0  02:05      0.89    0.65    1.00
  YS02001767YS02001765 CONDUIT    696.64     0  02:04      0.89    0.88    1.00
  YS02001770YS02001767 CONDUIT    695.54     0  02:04      0.89    2.76    1.00
  YS02001774YS02001770 CONDUIT    852.09     0  02:16      1.08    0.54    1.00
  YS02001779YS02001774 CONDUIT    851.61     0  02:15      1.08    0.43    1.00
  YS02001783YS02001784 CONDUIT   1174.39     0  02:12      2.34    1.62    1.00
  YS02001784YS02001785 CONDUIT   1175.70     0  02:12      2.34    2.74    1.00
  YS02001786YS02001788 CONDUIT   1176.02     0  02:12      2.50    2.27    0.89
  YS02001788YS02001790 CONDUIT   1181.53     0  02:13      2.72    0.87    0.84
  YS02001790YS02001791 CONDUIT   1298.77     0  02:08      3.45    1.41    0.71
  YS02001791YS02001793 CONDUIT   1264.33     0  02:12      6.79    0.54    0.45
  YS02001793JiankangQianchi CONDUIT   1259.78     0  02:13      2.49    0.10    0.65
  YS02001882YS02001884 CONDUIT     40.41     0  01:55      0.18    0.05    1.00
  YS02001884YS02001887 CONDUIT     35.21     0  01:54      0.13    0.05    1.00
  YS02001887YS02001890 CONDUIT   1186.68     0  02:13      1.51    2.03    1.00
  YS02001890YS02001895 CONDUIT    518.63     0  02:19      0.66    0.24    1.00
  YS02001895YS02001898 CONDUIT    518.38     0  02:20      0.66    0.90    1.00
  YS02001898YS02001901 CONDUIT    518.53     0  02:20      0.66    0.33    1.00
  YS02001901YS02001904 CONDUIT    518.24     0  02:19      0.66    0.80    1.00
  YS02001904YS02001907 CONDUIT    520.27     0  02:19      0.66    0.18    1.00
  YS02001907YS02006553 CONDUIT    798.23     0  02:36      0.89    0.94    1.00
  YS02001910YS02001907 CONDUIT   1993.02     0  02:15      2.54    1.12    1.00
  YS02001915YS02001910 CONDUIT   1993.14     0  02:14      2.54    0.99    1.00
  YS02001918YS02001915 CONDUIT    715.29     0  02:14      0.91    0.39    1.00
  YS02001920YS02001918 CONDUIT    714.50     0  02:14      0.91    0.69    1.00
  YS02001923YS02001920 CONDUIT    710.88     0  02:14      0.91    0.32    1.00
  YS02001926YS02001923 CONDUIT    709.90     0  02:14      0.93    1.01    1.00
  YS02001929YS02001926 CONDUIT    708.88     0  02:14      1.05    0.34    1.00
  YS02006553YS02006556 CONDUIT    798.35     0  02:36      1.02    0.68    1.00
  YS02006556YS02006558 CONDUIT    799.12     0  02:36      1.02    0.63    1.00
  YS02006558YS02006561 CONDUIT   1173.63     0  02:12      4.15    2.59    1.00
  YS02006561YS02001783 CONDUIT   1175.20     0  02:12      2.34    0.61    1.00
  YS02163301YS02001633 CONDUIT    914.91     0  01:55      1.16    0.86    1.00
  YS02163601YS02164001 CONDUIT   1284.77     0  01:56      1.64    1.14    1.00
  YS02164001YS02001641 CONDUIT   1284.43     0  01:56      1.64    1.75    1.00
  CC-R1                PUMP       683.00     0  00:00              1.00
  CC-R2                PUMP       683.00     0  00:00              1.00
  CC-S1                PUMP       200.00     0  00:00              1.00
  CC-S2                PUMP       200.00     0  00:00              1.00
  JK-R1                PUMP      1000.00     0  00:00              1.00
  JK-R2                PUMP      1000.00     0  00:00              1.00
  JK-S                 PUMP       300.00     0  00:00              1.00
  
  
  ***************************
  Flow Classification Summary
  ***************************
  
  -------------------------------------------------------------------------------------
                      Adjusted    ---------- Fraction of Time in Flow Class ---------- 
                       /Actual         Up    Down  Sub   Sup   Up    Down  Norm  Inlet 
  Conduit               Length    Dry  Dry   Dry   Crit  Crit  Crit  Crit  Ltd   Ctrl  
  -------------------------------------------------------------------------------------
  1                       1.00   0.00  0.00  0.00  0.00  1.00  0.00  0.00  0.37  0.00
  WS02003060WS02003069    1.00   0.00  0.00  0.00  0.97  0.03  0.00  0.00  0.60  0.00
  WS02003066WSF200        1.00   0.13  0.00  0.00  0.00  0.87  0.00  0.00  0.70  0.00
  WS02003067WS02003066    1.00   0.10  0.02  0.00  0.88  0.00  0.00  0.00  0.00  0.00
  WS02003069WS02003072    1.00   0.00  0.00  0.00  0.99  0.01  0.00  0.00  0.64  0.00
  WS02003072WS02003073    1.00   0.00  0.00  0.00  0.00  0.00  0.00  1.00  0.00  0.00
  WS02004401WS02004402    1.00   0.02  0.00  0.00  0.98  0.00  0.00  0.00  0.00  0.00
  WS02004402WS02004403    1.00   0.02  0.00  0.00  0.97  0.00  0.00  0.00  0.00  0.00
  WS02004403WS02004404    1.00   0.00  0.03  0.00  0.97  0.00  0.00  0.00  0.00  0.00
  WS02004404WS02004405    1.00   0.00  0.00  0.00  1.00  0.00  0.00  0.00  0.01  0.00
  WS02004405WS02004406    1.00   0.00  0.00  0.00  1.00  0.00  0.00  0.00  0.00  0.00
  WS02004406WS02004407    1.00   0.00  0.05  0.00  0.95  0.00  0.00  0.00  0.00  0.00
  WS02004407WS02004409    1.00   0.05  0.00  0.00  0.94  0.01  0.00  0.00  0.94  0.00
  WS02004409WS02004410    1.00   0.05  0.00  0.00  0.95  0.00  0.00  0.00  0.03  0.00
  WS02004410WS02004411    1.00   0.05  0.00  0.00  0.95  0.00  0.00  0.00  0.01  0.00
  WS02004411WS02004412    1.00   0.05  0.00  0.00  0.95  0.00  0.00  0.00  0.00  0.00
  WS02004412WS02004413    1.00   0.05  0.00  0.00  0.94  0.00  0.00  0.00  0.01  0.00
  WS02004413WS02003067    1.00   0.06  0.04  0.00  0.00  0.00  0.90  0.00  0.00  0.00
  WS02006109WS02006110    1.00   0.00  0.01  0.00  0.98  0.00  0.01  0.00  0.00  0.00
  WS02006110WS02006113    1.00   0.01  0.01  0.00  0.98  0.00  0.00  0.00  0.00  0.00
  WS02006111WS02006112    1.00   0.02  0.00  0.00  0.98  0.00  0.00  0.00  0.98  0.00
  WS02006112WS02006115    1.00   0.02  0.00  0.00  0.97  0.00  0.00  0.00  0.00  0.00
  WS02006113WS02006111    1.00   0.02  0.00  0.00  0.00  0.98  0.00  0.00  0.16  0.00
  WS02006115WS02006116    1.00   0.02  0.00  0.00  0.97  0.00  0.00  0.01  0.00  0.00
  WS02006116WS02004401    1.00   0.02  0.00  0.00  0.98  0.00  0.00  0.00  0.00  0.00
  WS02006228WS02006109    1.00   0.00  0.00  0.00  1.00  0.00  0.00  0.00  0.00  0.00
  WS02006229WS02006228    1.00   0.00  0.00  0.00  0.99  0.00  0.00  0.01  0.00  0.00
  WS02006230WS02006229    1.00   0.00  0.00  0.00  0.99  0.00  0.00  0.01  0.02  0.00
  WS02006231WS02006230    1.00   0.00  0.00  0.00  0.35  0.00  0.64  0.00  0.00  0.00
  WS02006232WS02006231    1.00   0.00  0.00  0.00  0.99  0.00  0.01  0.00  0.00  0.00
  WS02006234WS02006232    1.00   0.00  0.00  0.00  1.00  0.00  0.00  0.00  0.05  0.00
  WS02006235WS02006234    1.00   0.00  0.00  0.00  0.92  0.00  0.08  0.00  0.00  0.00
  WS02006238WS02006235    1.00   0.00  0.00  0.00  1.00  0.00  0.00  0.00  0.00  0.00
  WS02006239WS02006238    1.00   0.00  0.00  0.00  1.00  0.00  0.00  0.00  0.12  0.00
  WS02006240WS02006239    1.00   0.00  0.00  0.00  0.71  0.00  0.00  0.28  0.04  0.00
  WS02006242WS02006240    1.00   0.00  0.00  0.00  0.99  0.00  0.01  0.00  0.00  0.00
  WS02006243WS02006242    1.00   0.00  0.00  0.00  0.99  0.00  0.00  0.01  0.50  0.00
  WS02006245WS02006243    1.00   0.00  0.00  0.00  0.80  0.00  0.00  0.20  0.00  0.00
  WS02006247WS02006245    1.00   0.00  0.00  0.00  0.97  0.00  0.00  0.03  0.00  0.00
  WS02006248WS02006247    1.00   0.00  0.00  0.00  0.99  0.00  0.00  0.01  0.42  0.00
  WS02006249WS02006248    1.00   0.00  0.00  0.00  0.51  0.00  0.49  0.00  0.00  0.00
  WS02006251WS02006249    1.00   0.00  0.00  0.00  0.99  0.01  0.00  0.00  0.50  0.00
  WS02006252WS02006251    1.00   0.00  0.47  0.00  0.17  0.00  0.36  0.00  0.00  0.00
  WS02006256WS02006235    1.00   0.00  0.00  0.00  0.98  0.02  0.00  0.00  0.00  0.00
  WSF200WS02003060        1.00   0.00  0.13  0.00  0.32  0.55  0.00  0.00  0.47  0.00
  YS02001580YS02001583    1.00   0.22  0.52  0.00  0.25  0.00  0.00  0.00  0.62  0.00
  YS02001583YS02001586    1.00   0.40  0.30  0.00  0.30  0.00  0.00  0.00  0.62  0.00
  YS02001586YS02001590    1.00   0.13  0.00  0.00  0.47  0.04  0.00  0.36  0.35  0.00
  YS02001590YS02001593    1.00   0.13  0.01  0.00  0.18  0.00  0.69  0.00  0.00  0.00
  YS02001593YS02001596    1.00   0.13  0.00  0.00  0.20  0.01  0.00  0.66  0.02  0.00
  YS02001596YS02001600    1.00   0.13  0.00  0.00  0.25  0.01  0.00  0.61  0.04  0.00
  YS02001600YS02001601    1.00   0.13  0.01  0.00  0.87  0.00  0.00  0.00  0.57  0.00
  YS02001601YS02001602    1.00   0.13  0.01  0.00  0.87  0.00  0.00  0.00  0.00  0.00
  YS02001602YS02001605    1.00   0.13  0.00  0.00  0.87  0.00  0.00  0.00  0.00  0.00
  YS02001605YS02001607    1.00   0.13  0.00  0.00  0.87  0.00  0.00  0.00  0.00  0.00
  YS02001607YS02001610    1.00   0.13  0.00  0.00  0.86  0.00  0.00  0.00  0.01  0.00
  YS02001610YS02001613    1.00   0.13  0.00  0.00  0.87  0.00  0.00  0.00  0.00  0.00
  YS02001613YS02001616    1.00   0.13  0.00  0.00  0.87  0.00  0.00  0.00  0.00  0.00
  YS02001616YS02001619    1.00   0.13  0.00  0.00  0.87  0.00  0.00  0.00  0.00  0.00
  YS02001619YS02001622    1.00   0.13  0.00  0.00  0.87  0.00  0.00  0.00  0.26  0.00
  YS02001622YS02001625    1.00   0.13  0.00  0.00  0.87  0.00  0.00  0.00  0.02  0.00
  YS02001625YS02001629    1.00   0.13  0.03  0.00  0.23  0.00  0.61  0.00  0.00  0.00
  YS02001629YS02163301    1.00   0.14  0.01  0.00  0.85  0.00  0.00  0.00  0.00  0.00
  YS02001633YS02163601    1.00   0.00  0.01  0.00  0.99  0.00  0.00  0.00  0.14  0.00
  YS02001641YS02001644    1.00   0.00  0.01  0.00  0.99  0.00  0.00  0.00  0.00  0.00
  YS02001644YS02001647    1.00   0.00  0.15  0.00  0.85  0.00  0.00  0.00  0.00  0.00
  YS02001647YS02001649    1.00   0.00  0.15  0.00  0.63  0.22  0.00  0.00  0.56  0.00
  YS02001649YS02001757    1.00   0.00  0.00  0.00  0.81  0.19  0.00  0.00  0.35  0.00
  YS02001652YS02001649    1.00   0.00  0.00  0.00  0.98  0.02  0.00  0.00  0.68  0.00
  YS02001655YS02001652    1.00   0.00  0.00  0.00  0.26  0.01  0.00  0.73  0.06  0.00
  YS02001658YS02001655    1.00   0.00  0.14  0.00  0.72  0.14  0.00  0.00  0.61  0.00
  YS02001661YS02001658    1.00   0.14  0.00  0.00  0.56  0.31  0.00  0.00  0.63  0.00
  YS02001664YS02001661    1.00   0.13  0.00  0.00  0.79  0.08  0.00  0.00  0.82  0.00
  YS02001745YS02001748    1.00   0.00  0.00  0.00  0.16  0.00  0.00  0.83  0.04  0.00
  YS02001748YS02001751    1.00   0.00  0.00  0.00  0.87  0.13  0.00  0.00  0.71  0.00
  YS02001751YS02001754    1.00   0.00  0.00  0.00  0.24  0.01  0.00  0.75  0.04  0.00
  YS02001754YS02001757    1.00   0.00  0.00  0.00  1.00  0.00  0.00  0.00  0.73  0.00
  YS02001757CaochengTiaoxuchi    1.00   0.00  0.00  0.00  0.97  0.03  0.00  0.00  0.63  0.00
  YS02001759YS02001757    1.00   0.00  0.00  0.00  0.98  0.02  0.00  0.00  0.52  0.00
  YS02001762YS02001759    1.00   0.00  0.00  0.00  1.00  0.00  0.00  0.00  0.02  0.00
  YS02001765YS02001762    1.00   0.00  0.00  0.00  1.00  0.00  0.00  0.00  0.60  0.00
  YS02001767YS02001765    1.00   0.00  0.00  0.00  1.00  0.00  0.00  0.00  0.01  0.00
  YS02001770YS02001767    1.00   0.00  0.00  0.00  1.00  0.00  0.00  0.00  0.00  0.00
  YS02001774YS02001770    1.00   0.00  0.13  0.00  0.72  0.00  0.15  0.00  0.02  0.00
  YS02001779YS02001774    1.00   0.00  0.00  0.00  1.00  0.00  0.00  0.00  0.70  0.00
  YS02001783YS02001784    1.00   0.00  0.16  0.00  0.84  0.00  0.00  0.00  0.54  0.00
  YS02001784YS02001785    1.00   0.00  0.00  0.00  1.00  0.00  0.00  0.00  0.15  0.00
  YS02001786YS02001788    1.00   0.00  0.00  0.00  0.80  0.20  0.00  0.00  0.00  0.00
  YS02001788YS02001790    1.00   0.00  0.00  0.00  0.22  0.78  0.00  0.00  0.77  0.00
  YS02001790YS02001791    1.00   0.00  0.00  0.00  0.01  0.99  0.00  0.00  0.16  0.00
  YS02001791YS02001793    1.00   0.00  0.00  0.00  0.00  1.00  0.00  0.00  0.01  0.00
  YS02001793JiankangQianchi    1.00   0.00  0.00  0.00  0.94  0.06  0.00  0.00  0.96  0.00
  YS02001882YS02001884    1.00   0.14  0.00  0.00  0.85  0.00  0.00  0.00  0.00  0.00
  YS02001884YS02001887    1.00   0.06  0.05  0.00  0.89  0.00  0.00  0.00  0.00  0.00
  YS02001887YS02001890    1.00   0.00  0.00  0.00  0.97  0.00  0.03  0.00  0.00  0.00
  YS02001890YS02001895    1.00   0.00  0.15  0.00  0.85  0.00  0.00  0.00  0.00  0.00
  YS02001895YS02001898    1.00   0.15  0.00  0.00  0.84  0.00  0.01  0.00  0.00  0.00
  YS02001898YS02001901    1.00   0.15  0.00  0.00  0.85  0.00  0.00  0.00  0.00  0.00
  YS02001901YS02001904    1.00   0.15  0.00  0.00  0.85  0.00  0.00  0.00  0.00  0.00
  YS02001904YS02001907    1.00   0.00  0.15  0.00  0.85  0.00  0.00  0.00  0.00  0.00
  YS02001907YS02006553    1.00   0.00  0.02  0.00  0.98  0.00  0.00  0.00  0.00  0.00
  YS02001910YS02001907    1.00   0.00  0.00  0.00  0.97  0.00  0.00  0.03  0.11  0.00
  YS02001915YS02001910    1.00   0.00  0.00  0.00  0.97  0.03  0.00  0.00  0.12  0.00
  YS02001918YS02001915    1.00   0.00  0.01  0.00  0.98  0.02  0.00  0.00  0.69  0.00
  YS02001920YS02001918    1.00   0.00  0.01  0.00  0.99  0.00  0.00  0.00  0.00  0.00
  YS02001923YS02001920    1.00   0.00  0.00  0.00  1.00  0.00  0.00  0.00  0.88  0.00
  YS02001926YS02001923    1.00   0.00  0.07  0.00  0.10  0.00  0.83  0.00  0.00  0.00
  YS02001929YS02001926    1.00   0.00  0.13  0.00  0.87  0.00  0.00  0.00  0.79  0.00
  YS02006553YS02006556    1.00   0.01  0.00  0.00  0.99  0.00  0.00  0.00  0.03  0.00
  YS02006556YS02006558    1.00   0.00  0.00  0.00  1.00  0.00  0.00  0.00  0.00  0.00
  YS02006558YS02006561    1.00   0.16  0.00  0.00  0.09  0.75  0.00  0.00  0.16  0.00
  YS02006561YS02001783    1.00   0.16  0.00  0.00  0.14  0.70  0.00  0.00  0.64  0.00
  YS02163301YS02001633    1.00   0.00  0.14  0.00  0.86  0.00  0.00  0.00  0.00  0.00
  YS02163601YS02164001    1.00   0.00  0.08  0.00  0.92  0.00  0.00  0.00  0.00  0.00
  YS02164001YS02001641    1.00   0.01  0.07  0.00  0.92  0.00  0.00  0.00  0.05  0.00
  
  
  *************************
  Conduit Surcharge Summary
  *************************
  
  ----------------------------------------------------------------------------
                                                           Hours        Hours 
                         --------- Hours Full --------   Above Full   Capacity
  Conduit                Both Ends  Upstream  Dnstream   Normal Flow   Limited
  ----------------------------------------------------------------------------
  WS02003072WS02003073        0.01      0.01      0.01      1.55         0.01
  WS02004403WS02004404        0.01      0.01      0.08      0.01         0.01
  WS02004404WS02004405        0.01      0.08      0.01      3.78         0.01
  WS02004405WS02004406        0.01      0.01      0.01      1.18         0.01
  WS02006109WS02006110        1.20      1.20      2.71      1.28         0.01
  WS02006110WS02006113        0.01      0.01      2.67      0.01         0.01
  WS02006111WS02006112        0.01      0.01      3.02      0.01         0.01
  WS02006112WS02006115        0.01      0.01      1.33      0.01         0.01
  WS02006228WS02006109        2.61      2.71      2.61      3.20         2.60
  WS02006229WS02006228        2.59      2.62      2.59      2.91         2.59
  WS02006230WS02006229        2.77      2.88      2.77      4.16         2.77
  WS02006231WS02006230        1.21      1.21      1.32      3.86         0.01
  WS02006232WS02006231        1.29      1.29      2.71      1.36         0.01
  WS02006234WS02006232        2.55      2.55      2.71      1.34         1.34
  WS02006235WS02006234        1.51      1.51      2.59      3.66         0.01
  WS02006238WS02006235        2.62      2.62      2.71      0.01         0.01
  WS02006239WS02006238        2.63      2.66      2.66      2.77         2.37
  WS02006240WS02006239        2.58      2.61      2.58      2.76         2.16
  WS02006242WS02006240        2.59      2.59      2.70      3.08         0.01
  WS02006243WS02006242        2.60      2.60      2.65      0.01         0.03
  WS02006245WS02006243        2.58      2.59      2.59      1.56         1.60
  WS02006247WS02006245        2.58      2.59      2.58      3.50         2.57
  WS02006248WS02006247        2.56      2.56      2.58      0.01         0.03
  WS02006249WS02006248        2.55      2.56      2.56      3.48         0.01
  WS02006251WS02006249        2.55      2.55      2.56      2.93         2.49
  WS02006252WS02006251        3.01      3.01      3.03      3.02         0.01
  WS02006256WS02006235        3.72      3.75      6.93      1.62         0.01
  YS02001580YS02001583        1.01      1.01      1.10      0.01         0.01
  YS02001583YS02001586        1.02      1.02      1.20      0.01         0.01
  YS02001586YS02001590        1.21      1.21      1.28      0.01         0.01
  YS02001590YS02001593        1.28      1.28      1.30      1.27         0.01
  YS02001593YS02001596        1.29      1.29      1.40      0.01         0.01
  YS02001596YS02001600        1.46      1.46      1.56      0.01         0.01
  YS02001600YS02001601        1.62      1.62      1.87      0.01         0.01
  YS02001601YS02001602        1.78      1.78      1.91      1.56         0.01
  YS02001602YS02001605        1.74      1.74      1.78      2.60         0.01
  YS02001605YS02001607        1.70      1.74      1.71      1.80         1.67
  YS02001607YS02001610        1.28      1.28      1.30      0.01         0.01
  YS02001610YS02001613        1.27      1.27      1.30      0.01         0.01
  YS02001613YS02001616        1.23      1.23      1.27      0.01         0.01
  YS02001616YS02001619        1.22      1.22      1.23      0.16         0.15
  YS02001619YS02001622        1.22      1.22      1.22      1.25         1.09
  YS02001622YS02001625        1.22      1.22      1.40      0.01         0.01
  YS02001625YS02001629        1.16      1.16      1.40      0.01         0.01
  YS02001629YS02163301        1.40      1.40      1.41      0.13         0.17
  YS02001633YS02163601        1.44      1.44      1.49      0.20         0.26
  YS02001641YS02001644        1.36      1.39      1.36      1.94         1.34
  YS02001644YS02001647        1.13      1.13      1.36      0.01         0.01
  YS02001647YS02001649        1.13      1.13      1.24      0.01         0.01
  YS02001649YS02001757        1.24      1.24      1.31      0.17         0.09
  YS02001652YS02001649        1.09      1.09      1.24      0.01         0.01
  YS02001655YS02001652        0.91      0.91      1.08      0.01         0.01
  YS02001658YS02001655        0.52      0.52      0.91      0.01         0.01
  YS02001661YS02001658        0.17      0.17      0.52      0.01         0.01
  YS02001664YS02001661        0.01      0.01      0.24      0.01         0.01
  YS02001745YS02001748        0.01      0.01      0.41      0.01         0.01
  YS02001748YS02001751        0.47      0.47      0.74      0.01         0.01
  YS02001751YS02001754        0.74      0.74      1.03      0.01         0.01
  YS02001754YS02001757        1.06      1.06      1.31      0.01         0.01
  YS02001757CaochengTiaoxuchi        1.31      1.31      2.30      0.55         0.53
  YS02001759YS02001757        1.23      1.23      1.31      0.01         0.01
  YS02001762YS02001759        1.20      1.20      1.23      0.01         0.02
  YS02001765YS02001762        1.16      1.16      1.20      0.01         0.01
  YS02001767YS02001765        1.13      1.13      1.16      0.01         0.02
  YS02001770YS02001767        1.13      1.13      1.13      0.82         0.69
  YS02001774YS02001770        1.11      1.11      1.19      0.01         0.01
  YS02001779YS02001774        1.01      1.01      1.19      0.01         0.01
  YS02001783YS02001784        0.82      0.85      0.82      1.08         0.82
  YS02001784YS02001785        0.67      0.82      0.67      1.43         0.67
  YS02001786YS02001788        0.01      0.67      0.01      1.26         0.01
  YS02001790YS02001791        0.01      0.01      0.01      0.80         0.01
  YS02001793JiankangQianchi        0.01      0.01      7.00      0.01         0.01
  YS02001882YS02001884        0.77      0.77      0.78      0.01         0.01
  YS02001884YS02001887        0.82      0.82      0.83      0.01         0.01
  YS02001887YS02001890        0.85      0.85      0.87      0.24         0.01
  YS02001890YS02001895        0.76      0.76      0.90      0.01         0.01
  YS02001895YS02001898        0.75      0.75      0.76      0.01         0.01
  YS02001898YS02001901        0.76      0.76      0.81      0.01         0.01
  YS02001901YS02001904        0.80      0.80      0.81      0.01         0.01
  YS02001904YS02001907        0.80      0.80      1.22      0.01         0.01
  YS02001907YS02006553        1.44      1.44      1.50      0.01         0.01
  YS02001910YS02001907        0.89      0.89      1.19      0.11         0.11
  YS02001915YS02001910        0.77      0.77      0.89      0.01         0.01
  YS02001918YS02001915        0.66      0.66      0.77      0.01         0.01
  YS02001920YS02001918        0.66      0.66      0.67      0.01         0.01
  YS02001923YS02001920        0.60      0.60      0.67      0.01         0.01
  YS02001926YS02001923        0.25      0.25      0.29      0.02         0.01
  YS02001929YS02001926        0.12      0.12      0.29      0.01         0.01
  YS02006553YS02006556        1.03      1.03      1.22      0.01         0.01
  YS02006556YS02006558        1.13      1.13      1.25      0.01         0.01
  YS02006558YS02006561        0.70      1.00      0.70      1.37         0.70
  YS02006561YS02001783        0.62      0.62      0.85      0.01         0.01
  YS02163301YS02001633        1.41      1.41      1.46      0.01         0.01
  YS02163601YS02164001        1.39      1.39      1.49      0.14         0.01
  YS02164001YS02001641        1.38      1.39      1.39      0.81         0.75
  
  
  ***************
  Pumping Summary
  ***************
  
  ---------------------------------------------------------------------------------------------------------
                                                  Min       Avg       Max     Total     Power    % Time Off
                        Percent   Number of      Flow      Flow      Flow    Volume     Usage    Pump Curve
  Pump                 Utilized   Start-Ups       LPS       LPS       LPS  10^6 ltr     Kw-hr    Low   High
  ---------------------------------------------------------------------------------------------------------
  CC-R1                   24.10          13      0.00    683.00    683.00     4.740     91.28    0.0    9.5
  CC-R2                   25.71          18      0.00    683.00    683.00     5.058     95.60    0.0   29.8
  CC-S1                   42.51          17      0.00    200.00    200.00     2.449     13.66    0.0    0.0
  CC-S2                   39.85          16      0.00    200.00    200.00     2.295     12.77    0.0    0.0
  JK-R1                    7.89          13      0.00   1000.00   1000.00     2.271     23.37    0.0    0.0
  JK-R2                    5.80          14      0.00   1000.00   1000.00     1.671     14.67    0.0    0.0
  JK-S                    19.91          27      0.00    300.00    300.00     1.720     27.01    0.0    0.0
  

  Analysis begun on:  Wed Dec 25 13:05:36 2024
  Analysis ended on:  Wed Dec 25 13:05:38 2024
  Total elapsed time: 00:00:02