
  EPA STORM WATER MANAGEMENT MODEL - VERSION 5.2 (Build 5.2.4)
  PYSWMM TOOLKIT API - VERSION v1.0 (2023-11-27)
  ------------------------------------------------------------

  WARNING 04: minimum elevation drop used for Conduit WS02004404WS02004405
  WARNING 03: negative offset ignored for Link YS02001904YS02001907
  
  ****************
  Analysis Options
  ****************
  Flow Units ............... LPS
  Process Models:
    Rainfall/Runoff ........ YES
    RDII ................... NO
    Snowmelt ............... NO
    Groundwater ............ NO
    Flow Routing ........... YES
    Ponding Allowed ........ NO
    Water Quality .......... NO
  Infiltration Method ...... HORTON
  Flow Routing Method ...... DYNWAVE
  Surcharge Method ......... EXTRAN
  Starting Date ............ 08/28/2015 08:00:00
  Ending Date .............. 08/28/2015 16:00:00
  Antecedent Dry Days ...... 8.0
  Report Time Step ......... 00:01:00
  Wet Time Step ............ 00:01:00
  Dry Time Step ............ 00:01:00
  Routing Time Step ........ 30.00 sec
  Variable Time Step ....... YES
  Maximum Trials ........... 8
  Number of Threads ........ 4
  Head Tolerance ........... 0.001500 m
  
  
  **************************        Volume         Depth
  Runoff Quantity Continuity     hectare-m            mm
  **************************     ---------       -------
  Total Precipitation ......         1.931        58.212
  Evaporation Loss .........         0.000         0.000
  Infiltration Loss ........         0.097         2.920
  Surface Runoff ...........         1.802        54.313
  Final Storage ............         0.033         0.994
  Continuity Error (%) .....        -0.024
  
  
  **************************        Volume        Volume
  Flow Routing Continuity        hectare-m      10^6 ltr
  **************************     ---------     ---------
  Dry Weather Inflow .......         0.025         0.251
  Wet Weather Inflow .......         1.802        18.020
  Groundwater Inflow .......         0.000         0.000
  RDII Inflow ..............         0.000         0.000
  External Inflow ..........         0.083         0.834
  External Outflow .........         1.466        14.656
  Flooding Loss ............         0.514         5.145
  Evaporation Loss .........         0.000         0.000
  Exfiltration Loss ........         0.000         0.000
  Initial Stored Volume ....         0.243         2.431
  Final Stored Volume ......         0.182         1.819
  Continuity Error (%) .....        -0.395
  
  
  *************************
  Highest Continuity Errors
  *************************
  Node YS02001583 (-7.24%)
  Node YS02001884 (5.09%)
  Node WS02006256 (-2.01%)
  
  
  ***************************
  Time-Step Critical Elements
  ***************************
  Link WS02006252WS02006251 (39.49%)
  Link WS02006238WS02006235 (21.25%)
  Link WS02004404WS02004405 (14.33%)
  Link YS02001791YS02001793 (6.79%)
  Link WS02006235WS02006234 (5.04%)
  
  
  ********************************
  Highest Flow Instability Indexes
  ********************************
  Link WS02006113WS02006111 (44)
  Link WS02006111WS02006112 (21)
  Link WS02006256WS02006235 (18)
  Link WS02006238WS02006235 (13)
  Link WS02006252WS02006251 (13)
  
  
  *********************************
  Most Frequent Nonconverging Nodes
  *********************************
  Node CC-1 (12.22%)
  Node CC-2 (12.22%)
  Node JK-1 (12.22%)
  Node JK-2 (12.22%)
  Node WSC (12.22%)
  
  
  *************************
  Routing Time Step Summary
  *************************
  Minimum Time Step           :     0.00 sec
  Average Time Step           :     2.25 sec
  Maximum Time Step           :     7.04 sec
  % of Time in Steady State   :     0.00
  Average Iterations per Step :     3.06
  % of Steps Not Converging   :    12.22
  Time Step Frequencies       :
     30.000 - 13.228 sec      :     0.00 %
     13.228 -  5.833 sec      :    11.26 %
      5.833 -  2.572 sec      :    21.92 %
      2.572 -  1.134 sec      :    22.62 %
      1.134 -  0.500 sec      :    44.20 %
  
  
  ***************************
  Subcatchment Runoff Summary
  ***************************
  
  ------------------------------------------------------------------------------------------------------------------------------
                            Total      Total      Total      Total     Imperv       Perv      Total       Total     Peak  Runoff
                           Precip      Runon       Evap      Infil     Runoff     Runoff     Runoff      Runoff   Runoff   Coeff
  Subcatchment                 mm         mm         mm         mm         mm         mm         mm    10^6 ltr      LPS
  ------------------------------------------------------------------------------------------------------------------------------
  sub60                     58.21       0.00       0.00       1.76      50.02       5.23      55.26        0.73   527.90   0.949
  sub61                     58.21       0.00       0.00       2.55      47.19       7.35      54.54        1.00   731.10   0.937
  sub62                     58.21       0.00       0.00       1.17      52.27       3.49      55.76        1.53  1025.55   0.958
  sub63                     58.21       0.00       0.00       4.70      40.36      12.19      52.55        1.19   812.95   0.903
  sub64                     58.21       0.00       0.00       2.37      48.28       6.36      54.64        1.31   826.08   0.939
  sub65                     58.21       0.00       0.00       2.05      49.39       5.51      54.91        1.51   923.58   0.943
  sub66                     58.21       0.00       0.00       5.82      40.26      11.06      51.32        2.39  1186.70   0.882
  sub67                     58.21       0.00       0.00       1.13      52.31       3.53      55.84        1.04   796.17   0.959
  sub68                     58.21       0.00       0.00       2.11      48.88       6.04      54.92        1.51  1053.43   0.943
  sub69                     58.21       0.00       0.00       1.86      49.37       6.87      56.24        2.08  1230.84   0.966
  sub70                     58.21       0.00       0.00       6.25      38.26      13.54      51.80        1.50   665.94   0.890
  sub71                     58.21       0.00       0.00       1.20      52.23       3.46      55.69        1.46   895.98   0.957
  sub72                     58.21       0.00       0.00       1.07      52.74       3.01      55.75        0.77   430.63   0.958
  
  
  ******************
  Node Depth Summary
  ******************
  
  ---------------------------------------------------------------------------------
                                 Average  Maximum  Maximum  Time of Max    Reported
                                   Depth    Depth      HGL   Occurrence   Max Depth
  Node                 Type       Meters   Meters   Meters  days hr:min      Meters
  ---------------------------------------------------------------------------------
  WS02003060           JUNCTION     0.23     0.38     5.32     0  02:27        0.38
  WS02003066           JUNCTION     0.19     0.30     5.85     0  02:27        0.30
  WS02003067           JUNCTION     0.49     0.70     6.02     0  02:26        0.70
  WS02003069           JUNCTION     0.25     0.43     5.01     0  02:28        0.43
  WS02003072           JUNCTION     0.32     0.50     4.87     0  02:29        0.50
  WS02003073           JUNCTION     0.18     0.30     4.36     0  02:29        0.30
  WS02004401           JUNCTION     0.57     0.85     6.85     0  02:21        0.85
  WS02004402           JUNCTION     0.60     0.88     6.84     0  02:21        0.88
  WS02004403           JUNCTION     0.63     0.89     6.82     0  02:21        0.89
  WS02004404           JUNCTION     0.70     0.96     6.81     0  02:21        0.96
  WS02004405           JUNCTION     0.70     0.96     6.81     0  02:21        0.96
  WS02004406           JUNCTION     0.71     0.96     6.79     0  02:22        0.96
  WS02004407           JUNCTION     0.17     0.30     6.61     0  02:22        0.30
  WS02004409           JUNCTION     0.37     0.67     6.44     0  02:25        0.67
  WS02004410           JUNCTION     0.40     0.68     6.40     0  02:26        0.68
  WS02004411           JUNCTION     0.42     0.69     6.37     0  02:26        0.69
  WS02004412           JUNCTION     0.44     0.70     6.34     0  02:26        0.70
  WS02004413           JUNCTION     0.60     0.86     6.33     0  02:27        0.86
  WS02006109           JUNCTION     0.63     1.12     7.74     0  02:11        1.00
  WS02006110           JUNCTION     0.63     1.12     7.71     0  02:09        0.93
  WS02006111           JUNCTION     0.17     0.29     7.00     0  02:11        0.29
  WS02006112           JUNCTION     0.72     1.07     6.95     0  03:08        1.05
  WS02006113           JUNCTION     0.26     0.46     7.35     0  02:11        0.45
  WS02006115           JUNCTION     0.45     0.75     6.89     0  02:23        0.75
  WS02006116           JUNCTION     0.54     0.83     6.87     0  02:21        0.83
  WS02006228           JUNCTION     0.61     1.25     7.91     0  02:11        1.25
  WS02006229           JUNCTION     0.58     1.19     7.89     0  02:11        1.19
  WS02006230           JUNCTION     0.58     1.39     8.14     0  02:11        1.26
  WS02006231           JUNCTION     0.39     1.26     8.38     0  02:11        1.26
  WS02006232           JUNCTION     0.53     1.54     8.58     0  02:11        1.54
  WS02006234           JUNCTION     0.44     1.52     8.68     0  02:11        1.52
  WS02006235           JUNCTION     0.48     1.66     8.82     0  02:42        1.49
  WS02006238           JUNCTION     0.51     1.70     8.85     0  02:42        1.51
  WS02006239           JUNCTION     0.47     1.69     8.90     0  02:42        1.42
  WS02006240           JUNCTION     0.44     1.61     8.90     0  02:42        1.31
  WS02006242           JUNCTION     0.50     1.55     8.82     0  02:42        1.32
  WS02006243           JUNCTION     0.41     1.40     8.82     0  02:42        1.26
  WS02006245           JUNCTION     0.41     1.32     8.80     0  02:42        1.22
  WS02006247           JUNCTION     0.43     1.26     8.76     0  02:42        1.19
  WS02006248           JUNCTION     0.40     1.10     8.69     0  02:10        1.10
  WS02006249           JUNCTION     0.43     1.09     8.69     0  02:04        1.09
  WS02006251           JUNCTION     0.42     1.38     9.05     0  02:04        1.25
  WS02006252           JUNCTION     0.32     1.50     9.74     0  00:00        0.81
  WS02006256           JUNCTION     0.91     2.35     9.28     0  00:00        2.35
  WSF200               JUNCTION     0.16     0.29     5.52     0  02:26        0.29
  YS02001580           JUNCTION     0.09     1.05     9.59     0  01:55        0.82
  YS02001583           JUNCTION     0.13     1.14     9.64     0  01:55        0.84
  YS02001586           JUNCTION     0.20     1.13     9.30     0  01:54        1.13
  YS02001590           JUNCTION     0.30     1.40     9.26     0  01:55        1.37
  YS02001593           JUNCTION     0.23     1.35     9.21     0  01:55        1.29
  YS02001596           JUNCTION     0.31     1.69     9.11     0  01:55        1.66
  YS02001600           JUNCTION     0.37     1.87     9.00     0  01:54        1.87
  YS02001601           JUNCTION     0.57     2.06     8.90     0  01:54        2.06
  YS02001602           JUNCTION     0.48     1.87     8.77     0  01:55        1.87
  YS02001605           JUNCTION     0.45     1.78     8.68     0  01:55        1.77
  YS02001607           JUNCTION     0.45     1.66     8.51     0  02:13        1.66
  YS02001610           JUNCTION     0.49     1.68     8.48     0  01:55        1.68
  YS02001613           JUNCTION     0.45     1.67     8.52     0  01:55        1.66
  YS02001616           JUNCTION     0.38     1.61     8.52     0  01:55        1.60
  YS02001619           JUNCTION     0.35     1.60     8.53     0  01:59        1.60
  YS02001622           JUNCTION     0.34     1.58     8.48     0  01:55        1.57
  YS02001625           JUNCTION     0.61     1.78     8.38     0  01:55        1.78
  YS02001629           JUNCTION     0.47     1.85     8.40     0  01:55        1.85
  YS02001633           JUNCTION     0.55     2.06     8.51     0  01:58        2.01
  YS02001641           JUNCTION     0.53     1.97     8.41     0  01:58        1.95
  YS02001644           JUNCTION     0.52     1.92     8.35     0  01:58        1.92
  YS02001647           JUNCTION     0.30     1.81     8.42     0  01:59        1.79
  YS02001649           JUNCTION     0.34     2.05     8.44     0  01:59        1.93
  YS02001652           JUNCTION     0.23     2.16     8.76     0  01:59        1.77
  YS02001655           JUNCTION     0.18     2.20     9.05     0  01:59        1.57
  YS02001658           JUNCTION     0.13     2.30     9.44     0  01:59        1.33
  YS02001661           JUNCTION     0.15     2.05     9.46     0  01:59        1.10
  YS02001664           JUNCTION     0.06     0.81     8.73     0  02:00        0.56
  YS02001745           JUNCTION     0.07     2.09     9.61     0  02:00        1.10
  YS02001748           JUNCTION     0.12     2.27     9.35     0  01:59        1.41
  YS02001751           JUNCTION     0.15     2.20     9.08     0  01:59        1.52
  YS02001754           JUNCTION     0.20     2.20     8.81     0  01:59        1.70
  YS02001757           JUNCTION     0.35     2.20     8.47     0  02:00        1.96
  YS02001759           JUNCTION     0.29     2.19     8.55     0  01:59        2.14
  YS02001762           JUNCTION     0.28     2.15     8.55     0  01:59        2.14
  YS02001765           JUNCTION     0.27     2.10     8.55     0  01:59        2.01
  YS02001767           JUNCTION     0.27     2.03     8.52     0  01:59        1.88
  YS02001770           JUNCTION     0.28     1.95     8.44     0  01:58        1.92
  YS02001774           JUNCTION     0.35     2.02     8.44     0  01:59        1.97
  YS02001779           JUNCTION     0.18     1.68     8.37     0  01:58        1.68
  YS02001783           JUNCTION     0.25     1.58     7.72     0  01:57        1.23
  YS02001784           JUNCTION     0.26     1.31     7.38     0  01:57        1.11
  YS02001786           JUNCTION     0.22     1.22     7.25     0  01:57        0.89
  YS02001788           JUNCTION     0.16     0.63     6.60     0  01:58        0.62
  YS02001790           JUNCTION     0.19     0.73     6.37     0  02:00        0.71
  YS02001791           JUNCTION     0.12     0.44     5.91     0  02:01        0.44
  YS02001793           JUNCTION     0.06     0.29     5.12     0  02:10        0.29
  YS02001882           JUNCTION     0.31     1.83     8.55     0  01:56        1.65
  YS02001884           JUNCTION     0.40     1.91     8.53     0  01:56        1.74
  YS02001887           JUNCTION     0.48     1.91     8.45     0  01:56        1.83
  YS02001890           JUNCTION     0.51     1.81     8.32     0  01:56        1.81
  YS02001895           JUNCTION     0.28     1.66     8.41     0  01:56        1.56
  YS02001898           JUNCTION     0.29     1.77     8.51     0  01:56        1.56
  YS02001901           JUNCTION     0.40     1.82     8.43     0  01:56        1.67
  YS02001904           JUNCTION     0.38     1.71     8.34     0  01:56        1.64
  YS02001907           JUNCTION     0.71     1.96     8.25     0  01:56        1.96
  YS02001910           JUNCTION     0.50     2.10     8.61     0  01:56        1.87
  YS02001915           JUNCTION     0.31     2.00     8.72     0  01:56        1.76
  YS02001918           JUNCTION     0.17     1.81     8.88     0  01:57        1.44
  YS02001920           JUNCTION     0.25     2.14     9.15     0  01:58        1.52
  YS02001923           JUNCTION     0.13     2.03     9.29     0  01:58        1.32
  YS02001926           JUNCTION     0.17     1.90     9.35     0  01:58        1.19
  YS02001929           JUNCTION     0.09     1.78     9.47     0  01:58        1.00
  YS02006553           JUNCTION     0.71     2.07     8.35     0  01:57        1.98
  YS02006556           JUNCTION     0.68     2.16     8.47     0  01:57        1.96
  YS02006558           JUNCTION     0.72     2.23     8.50     0  01:57        2.00
  YS02006561           JUNCTION     0.15     1.42     8.08     0  01:57        0.90
  YS02163301           JUNCTION     0.49     1.94     8.46     0  01:58        1.91
  YS02163601           JUNCTION     0.58     2.08     8.48     0  01:58        2.01
  YS02164001           JUNCTION     0.51     1.99     8.45     0  01:58        1.93
  CC-1                 OUTFALL      0.00     0.00     0.00     0  00:00        0.00
  CC-2                 OUTFALL      0.00     0.00     0.00     0  00:00        0.00
  JK-1                 OUTFALL      0.00     0.00     0.00     0  00:00        0.00
  JK-2                 OUTFALL      0.00     0.00     0.00     0  00:00        0.00
  WSC                  OUTFALL      0.18     0.30     0.97     0  02:29        0.30
  CC-storage           STORAGE      0.85     1.59     7.09     0  02:28        1.59
  JK-storage           STORAGE      1.78     4.22     5.02     0  02:10        4.18
  
  
  *******************
  Node Inflow Summary
  *******************
  
  -------------------------------------------------------------------------------------------------
                                  Maximum  Maximum                  Lateral       Total        Flow
                                  Lateral    Total  Time of Max      Inflow      Inflow     Balance
                                   Inflow   Inflow   Occurrence      Volume      Volume       Error
  Node                 Type           LPS      LPS  days hr:min    10^6 ltr    10^6 ltr     Percent
  -------------------------------------------------------------------------------------------------
  WS02003060           JUNCTION     16.53   552.75     0  02:27       0.476        4.66       0.052
  WS02003066           JUNCTION      0.00   536.10     0  02:27           0        4.19       0.034
  WS02003067           JUNCTION      0.00   536.09     0  02:27           0        4.19       0.102
  WS02003069           JUNCTION      0.32   552.99     0  02:27     0.00922        4.67       0.088
  WS02003072           JUNCTION      0.00   552.94     0  02:28           0        4.67       0.155
  WS02003073           JUNCTION      1.82   554.71     0  02:29      0.0524        4.71       0.128
  WS02004401           JUNCTION      0.00   537.74     0  02:21           0         4.3       0.241
  WS02004402           JUNCTION      0.00   537.11     0  02:21           0        4.29       0.244
  WS02004403           JUNCTION      0.00   537.14     0  02:21           0        4.28       0.238
  WS02004404           JUNCTION      0.16   537.02     0  02:21     0.00467        4.27       0.219
  WS02004405           JUNCTION      0.04   536.94     0  02:21      0.0011        4.26       0.276
  WS02004406           JUNCTION      0.00   537.03     0  02:22           0        4.25       0.492
  WS02004407           JUNCTION      0.00   536.76     0  02:22           0        4.23       0.029
  WS02004409           JUNCTION      0.00   536.60     0  02:22           0        4.23       0.067
  WS02004410           JUNCTION      0.00   536.32     0  02:25           0        4.23       0.107
  WS02004411           JUNCTION      0.00   536.15     0  02:26           0        4.22       0.136
  WS02004412           JUNCTION      0.00   536.21     0  02:26           0        4.22       0.181
  WS02004413           JUNCTION      0.00   536.13     0  02:27           0        4.21       0.321
  WS02006109           JUNCTION      1.23   566.28     0  02:11      0.0354        4.34       0.138
  WS02006110           JUNCTION      0.00   565.51     0  02:11           0        4.34       0.150
  WS02006111           JUNCTION      0.00   563.59     0  03:03           0        4.33       0.021
  WS02006112           JUNCTION      0.00   546.06     0  02:11           0        4.33       0.413
  WS02006113           JUNCTION      0.00   573.63     0  02:11           0        4.33       0.041
  WS02006115           JUNCTION      0.00   555.62     0  02:11           0        4.31       0.154
  WS02006116           JUNCTION      0.00   538.30     0  02:30           0         4.3       0.138
  WS02006228           JUNCTION      0.00   564.02     0  02:11           0        4.31       0.064
  WS02006229           JUNCTION      0.00   561.54     0  02:11           0        4.31       0.122
  WS02006230           JUNCTION     10.28   584.13     0  03:07       0.296        4.32       0.102
  WS02006231           JUNCTION      0.00   576.50     0  02:28           0        4.02      -0.055
  WS02006232           JUNCTION      0.00   575.71     0  02:28           0        4.03       0.277
  WS02006234           JUNCTION      0.00   570.61     0  02:28           0        4.02      -0.373
  WS02006235           JUNCTION      0.00   562.86     0  02:28           0        4.13       0.383
  WS02006238           JUNCTION      0.00   425.07     0  02:25           0        3.44      -0.268
  WS02006239           JUNCTION      0.00   424.27     0  02:25           0        3.38      -0.175
  WS02006240           JUNCTION      0.00   421.82     0  02:25           0        3.33      -0.080
  WS02006242           JUNCTION      0.00   421.33     0  02:25           0        3.31      -0.027
  WS02006243           JUNCTION      0.00   420.79     0  02:25           0        3.28      -0.297
  WS02006245           JUNCTION      0.00   420.13     0  02:35           0         3.3       0.537
  WS02006247           JUNCTION      0.00   421.08     0  02:35           0        3.29      -0.037
  WS02006248           JUNCTION      0.00   422.24     0  02:35           0         3.3       0.048
  WS02006249           JUNCTION      0.00   468.06     0  04:35           0        3.47       0.505
  WS02006251           JUNCTION      0.08   406.80     0  02:04     0.00222        3.47       0.026
  WS02006252           JUNCTION      0.00   400.00     0  00:00           0        3.45      -0.303
  WS02006256           JUNCTION      0.00   300.00     0  00:00           0        1.02      -1.970
  WSF200               JUNCTION      0.00   536.10     0  02:27           0        4.19       0.012
  YS02001580           JUNCTION      0.00   116.92     0  01:55           0     0.00431      -0.980
  YS02001583           JUNCTION      0.00   196.75     0  01:55           0       0.015      -6.755
  YS02001586           JUNCTION    665.94   665.97     0  02:04         1.5        1.51       0.085
  YS02001590           JUNCTION      0.00   318.53     0  02:13           0        1.21      -0.049
  YS02001593           JUNCTION      0.00   318.12     0  02:13           0        1.22       0.002
  YS02001596           JUNCTION      0.00   318.01     0  02:15           0        1.22      -0.012
  YS02001600           JUNCTION      0.00   318.26     0  02:13           0        1.22       0.007
  YS02001601           JUNCTION   1230.84  1548.34     0  02:03        2.08         3.3       0.015
  YS02001602           JUNCTION      0.00   533.42     0  01:55           0        2.09       0.016
  YS02001605           JUNCTION      0.00   533.06     0  01:55           0        1.99       0.032
  YS02001607           JUNCTION      0.00   532.94     0  01:55           0        1.99       0.097
  YS02001610           JUNCTION      0.00   630.04     0  02:04           0        2.13       0.098
  YS02001613           JUNCTION      0.00   544.00     0  01:55           0        1.73       0.089
  YS02001616           JUNCTION      0.00   552.04     0  01:55           0        1.73       0.023
  YS02001619           JUNCTION   1186.70  1186.70     0  02:04        2.39        3.97       0.001
  YS02001622           JUNCTION      0.00   945.62     0  01:55           0        3.82      -0.006
  YS02001625           JUNCTION      0.00  1247.45     0  02:04           0        3.96       0.216
  YS02001629           JUNCTION      0.00   953.78     0  01:55           0        3.18       0.024
  YS02001633           JUNCTION    923.78  1404.57     0  01:57        1.52        4.51       0.077
  YS02001641           JUNCTION      0.00  1403.52     0  01:57           0        4.34       0.063
  YS02001644           JUNCTION    826.12  1833.33     0  01:57        1.31        5.65       0.055
  YS02001647           JUNCTION      0.00  1833.69     0  01:57           0        5.36       0.007
  YS02001649           JUNCTION      0.00  2113.45     0  01:57           0        6.56       0.003
  YS02001652           JUNCTION      0.00   933.32     0  02:01           0         1.2      -0.098
  YS02001655           JUNCTION      0.15   932.82     0  02:01     0.00443         1.2      -0.048
  YS02001658           JUNCTION      0.00   932.49     0  02:01           0        1.19      -0.076
  YS02001661           JUNCTION      0.00   931.38     0  02:01           0        1.19       0.026
  YS02001664           JUNCTION    812.95   812.95     0  02:02        1.19        1.19      -0.016
  YS02001745           JUNCTION    527.90   535.41     0  01:59       0.726       0.727       0.137
  YS02001748           JUNCTION      0.04   666.37     0  02:00      0.0013       0.729      -0.395
  YS02001751           JUNCTION      0.01   668.46     0  02:00    0.000317       0.737       0.061
  YS02001754           JUNCTION      0.26   668.40     0  02:00     0.00749        0.75      -0.192
  YS02001757           JUNCTION      0.00  3517.19     0  02:00           0        9.73       0.039
  YS02001759           JUNCTION    731.14  1448.27     0  01:59           1        2.42      -0.016
  YS02001762           JUNCTION      0.00   826.29     0  01:59           0        1.42      -0.008
  YS02001765           JUNCTION      0.00   825.88     0  01:59           0        1.42       0.001
  YS02001767           JUNCTION      0.54   826.85     0  01:59      0.0154        1.42       0.005
  YS02001770           JUNCTION   1025.70  1025.70     0  02:02        1.53        1.57      -0.010
  YS02001774           JUNCTION      0.00   437.91     0  01:58           0       0.187       0.538
  YS02001779           JUNCTION      0.01   442.24     0  01:58    0.000144       0.144      -0.234
  YS02001783           JUNCTION      0.00  1164.20     0  02:00           0        3.68       0.006
  YS02001784           JUNCTION      1.06  1165.47     0  02:00      0.0305        3.71       0.013
  YS02001786           JUNCTION      0.06  1165.60     0  02:00     0.00162        3.71       0.019
  YS02001788           JUNCTION      0.07  1165.68     0  02:00     0.00204        3.71       0.008
  YS02001790           JUNCTION      0.15  1175.07     0  01:58     0.00446        3.72       0.017
  YS02001791           JUNCTION      0.00  1299.97     0  02:00           0        3.72      -0.018
  YS02001793           JUNCTION      0.00  1244.44     0  02:06           0        3.72       0.006
  YS02001882           JUNCTION      0.00    54.81     0  01:56           0      0.0126       5.553
  YS02001884           JUNCTION      0.00    74.17     0  01:56           0      0.0485       5.361
  YS02001887           JUNCTION    796.62   798.56     0  02:01        1.05        1.09       0.403
  YS02001890           JUNCTION      0.00   800.00     0  02:01           0        1.04       0.478
  YS02001895           JUNCTION      0.00   518.59     0  02:04           0       0.957       0.145
  YS02001898           JUNCTION      0.00   518.42     0  02:04           0       0.956       0.016
  YS02001901           JUNCTION      0.00   518.69     0  02:04           0       0.958       0.331
  YS02001904           JUNCTION      0.00   518.68     0  02:04           0       0.962       0.280
  YS02001907           JUNCTION      0.00  1875.10     0  02:02           0        3.26       0.522
  YS02001910           JUNCTION      0.00  1360.04     0  02:02           0         2.3       0.309
  YS02001915           JUNCTION    896.00  1359.41     0  02:02        1.46        2.35       0.058
  YS02001918           JUNCTION      0.00   473.52     0  01:58           0       0.925       0.005
  YS02001920           JUNCTION      2.87   478.63     0  01:58      0.0827       0.906       0.117
  YS02001923           JUNCTION      0.04   497.58     0  01:58     0.00109       0.808      -0.071
  YS02001926           JUNCTION      0.05   739.76     0  01:58      0.0015       0.786      -0.074
  YS02001929           JUNCTION    430.63   587.39     0  01:58       0.767       0.771       0.017
  YS02006553           JUNCTION      0.00   802.05     0  02:18           0        2.19       0.546
  YS02006556           JUNCTION      0.00   801.81     0  02:18           0         2.2       0.365
  YS02006558           JUNCTION   1054.31  1170.28     0  01:57        1.54        3.71       0.091
  YS02006561           JUNCTION      0.00  1170.21     0  01:57           0        3.68       0.001
  YS02163301           JUNCTION      0.00   930.74     0  01:57           0        3.17       0.047
  YS02163601           JUNCTION      0.11  1404.22     0  01:57     0.00317        4.34       0.114
  YS02164001           JUNCTION      0.00  1403.63     0  01:57           0        4.34       0.050
  CC-1                 OUTFALL       0.00   683.00     0  00:00           0        3.36       0.000
  CC-2                 OUTFALL       0.00   683.00     0  00:00           0        3.77       0.000
  JK-1                 OUTFALL       0.00  1000.00     0  00:00           0        1.95       0.000
  JK-2                 OUTFALL       0.00  1000.00     0  00:00           0        0.87       0.000
  WSC                  OUTFALL       0.00   554.63     0  02:29           0        4.71       0.000
  CC-storage           STORAGE       0.00  3517.69     0  02:00           0        11.9      -0.257
  JK-storage           STORAGE       0.00  1247.66     0  02:17           0        3.87      -0.424
  
  
  **********************
  Node Surcharge Summary
  **********************
  
  Surcharging occurs when water rises above the top of the highest conduit.
  ---------------------------------------------------------------------
                                               Max. Height   Min. Depth
                                   Hours       Above Crown    Below Rim
  Node                 Type      Surcharged         Meters       Meters
  ---------------------------------------------------------------------
  WS02006109           JUNCTION        1.38          0.302        1.518
  WS02006110           JUNCTION        0.51          0.211        1.639
  WS02006112           JUNCTION        0.53          0.065        1.615
  WS02006228           JUNCTION        1.38          0.425        1.775
  WS02006229           JUNCTION        1.38          0.394        2.056
  WS02006230           JUNCTION        0.51          0.313        1.257
  WS02006231           JUNCTION        0.61          0.551        0.979
  WS02006232           JUNCTION        1.42          0.845        0.635
  WS02006234           JUNCTION        0.86          0.799        0.441
  WS02006235           JUNCTION        1.36          0.948        0.342
  WS02006238           JUNCTION        1.38          0.984        0.446
  WS02006239           JUNCTION        1.37          0.951        0.339
  WS02006240           JUNCTION        1.37          0.901        0.489
  WS02006242           JUNCTION        1.45          0.820        0.000
  WS02006243           JUNCTION        1.37          0.691        0.079
  WS02006245           JUNCTION        1.36          0.607        0.243
  WS02006247           JUNCTION        1.37          0.553        0.207
  WS02006248           JUNCTION        1.35          0.380        0.000
  WS02006249           JUNCTION        1.35          0.390        0.000
  WS02006251           JUNCTION        0.65          0.348        0.832
  WS02006252           JUNCTION        1.95          1.100        0.000
  WS02006256           JUNCTION        6.60          2.050        0.000
  YS02001580           JUNCTION        0.55          0.450        0.000
  YS02001583           JUNCTION        0.56          0.500        0.000
  YS02001586           JUNCTION        0.67          0.510        0.000
  YS02001590           JUNCTION        0.74          0.750        0.000
  YS02001593           JUNCTION        0.74          0.725        0.115
  YS02001596           JUNCTION        0.84          0.960        0.110
  YS02001600           JUNCTION        0.98          1.190        0.000
  YS02001601           JUNCTION        1.33          1.440        0.000
  YS02001602           JUNCTION        1.21          1.270        0.000
  YS02001605           JUNCTION        1.16          1.180        0.000
  YS02001607           JUNCTION        0.72          0.658        0.022
  YS02001610           JUNCTION        0.74          0.680        0.000
  YS02001613           JUNCTION        0.71          0.674        0.026
  YS02001616           JUNCTION        0.67          0.610        0.000
  YS02001619           JUNCTION        0.66          0.602        0.008
  YS02001622           JUNCTION        0.66          0.579        0.041
  YS02001625           JUNCTION        0.82          0.780        0.000
  YS02001629           JUNCTION        0.61          0.470        0.000
  YS02001633           JUNCTION        0.84          1.037        0.023
  YS02001641           JUNCTION        0.78          0.973        0.127
  YS02001644           JUNCTION        0.75          0.920        0.000
  YS02001647           JUNCTION        0.57          0.815        0.085
  YS02001649           JUNCTION        0.67          1.050        0.000
  YS02001652           JUNCTION        0.48          1.130        0.000
  YS02001655           JUNCTION        0.34          1.200        0.000
  YS02001658           JUNCTION        0.18          1.300        0.000
  YS02001661           JUNCTION        0.02          0.983        0.407
  YS02001745           JUNCTION        0.01          1.093        0.257
  YS02001748           JUNCTION        0.12          1.190        0.000
  YS02001751           JUNCTION        0.24          1.200        0.000
  YS02001754           JUNCTION        0.39          1.150        0.000
  YS02001757           JUNCTION        0.73          1.205        0.005
  YS02001759           JUNCTION        0.64          1.190        0.020
  YS02001762           JUNCTION        0.61          1.147        0.003
  YS02001765           JUNCTION        0.56          1.100        0.000
  YS02001767           JUNCTION        0.53          1.030        0.000
  YS02001770           JUNCTION        0.51          0.920        0.000
  YS02001774           JUNCTION        0.59          1.021        0.029
  YS02001779           JUNCTION        0.38          0.680        0.000
  YS02001783           JUNCTION        0.50          0.780        0.820
  YS02001784           JUNCTION        0.47          0.510        0.980
  YS02001786           JUNCTION        0.38          0.421        1.009
  YS02001882           JUNCTION        0.44          0.830        0.000
  YS02001884           JUNCTION        0.45          0.849        0.021
  YS02001887           JUNCTION        0.49          0.858        0.092
  YS02001890           JUNCTION        0.50          0.760        0.000
  YS02001895           JUNCTION        0.44          0.663        0.087
  YS02001898           JUNCTION        0.43          0.740        0.000
  YS02001901           JUNCTION        0.47          0.816        0.054
  YS02001904           JUNCTION        0.47          0.709        0.141
  YS02001907           JUNCTION        0.68          0.950        0.000
  YS02001910           JUNCTION        0.52          1.100        0.000
  YS02001915           JUNCTION        0.44          1.000        0.000
  YS02001918           JUNCTION        0.36          0.810        0.000
  YS02001920           JUNCTION        0.38          1.140        0.000
  YS02001923           JUNCTION        0.07          0.820        0.000
  YS02001926           JUNCTION        0.11          0.900        0.000
  YS02001929           JUNCTION        0.01          0.780        0.000
  YS02006553           JUNCTION        0.70          1.071        0.119
  YS02006556           JUNCTION        0.60          1.122        0.228
  YS02006558           JUNCTION        0.59          1.130        0.270
  YS02006561           JUNCTION        0.33          0.622        0.528
  YS02163301           JUNCTION        0.82          0.942        0.088
  YS02163601           JUNCTION        0.87          1.077        0.003
  YS02164001           JUNCTION        0.79          0.994        0.106
  
  
  *********************
  Node Flooding Summary
  *********************
  
  Flooding refers to all water that overflows a node, whether it ponds or not.
  --------------------------------------------------------------------------
                                                             Total   Maximum
                                 Maximum   Time of Max       Flood    Ponded
                        Hours       Rate    Occurrence      Volume     Depth
  Node                 Flooded       LPS   days hr:min    10^6 ltr    Meters
  --------------------------------------------------------------------------
  WS02006242              0.01      4.95      0  02:42       0.000     0.000
  WS02006248              0.01     15.39      0  02:10       0.000     0.000
  WS02006249              0.63    100.95      0  02:04       0.152     0.000
  WS02006252              0.01    245.63      0  00:00       0.000     0.000
  WS02006256              0.94    293.19      0  00:00       0.304     0.000
  YS02001580              0.01     95.25      0  01:55       0.000     0.000
  YS02001583              0.01    118.87      0  01:55       0.000     0.000
  YS02001586              0.44    348.44      0  02:04       0.281     0.000
  YS02001590              0.01      5.54      0  01:55       0.000     0.000
  YS02001600              0.01      1.88      0  01:55       0.000     0.000
  YS02001601              0.60   1150.41      0  02:03       1.207     0.000
  YS02001602              0.51     62.05      0  02:23       0.102     0.000
  YS02001605              0.01      5.66      0  01:55       0.000     0.000
  YS02001610              0.44    629.48      0  02:04       0.552     0.000
  YS02001616              0.01      6.50      0  01:55       0.000     0.000
  YS02001625              0.41   1247.36      0  02:04       0.944     0.000
  YS02001629              0.10    246.97      0  02:01       0.047     0.000
  YS02001644              0.16    795.49      0  02:01       0.277     0.000
  YS02001649              0.01     23.87      0  02:00       0.000     0.000
  YS02001652              0.01     47.94      0  01:59       0.000     0.000
  YS02001655              0.01     84.13      0  01:59       0.000     0.000
  YS02001658              0.01    491.87      0  01:59       0.000     0.000
  YS02001748              0.01    346.11      0  01:59       0.000     0.000
  YS02001751              0.01    330.52      0  01:59       0.000     0.000
  YS02001754              0.01     74.66      0  01:59       0.000     0.000
  YS02001765              0.01      4.68      0  01:59       0.000     0.000
  YS02001767              0.01      3.07      0  01:59       0.000     0.000
  YS02001770              0.01     21.29      0  02:00       0.000     0.000
  YS02001779              0.14    405.56      0  02:02       0.126     0.000
  YS02001882              0.01      7.61      0  01:56       0.000     0.000
  YS02001890              0.15    287.28      0  02:01       0.082     0.000
  YS02001898              0.01    127.93      0  01:56       0.000     0.000
  YS02001907              0.32   1769.79      0  02:02       1.060     0.000
  YS02001910              0.01     18.68      0  01:56       0.000     0.000
  YS02001915              0.01    180.84      0  01:56       0.000     0.000
  YS02001918              0.01    246.34      0  01:58       0.003     0.000
  YS02001920              0.01     46.22      0  01:58       0.000     0.000
  YS02001923              0.01    456.14      0  01:58       0.003     0.000
  YS02001926              0.01    630.66      0  01:58       0.001     0.000
  YS02001929              0.01    173.13      0  01:58       0.000     0.000
  
  
  **********************
  Storage Volume Summary
  **********************
  
  ------------------------------------------------------------------------------------------------
                         Average    Avg   Evap  Exfil     Maximum    Max    Time of Max    Maximum
                          Volume   Pcnt   Pcnt   Pcnt      Volume   Pcnt     Occurrence    Outflow
  Storage Unit           1000 m³   Full   Loss   Loss     1000 m³   Full    days hr:min        LPS
  ------------------------------------------------------------------------------------------------
  CC-storage               2.371   37.0    0.0    0.0       4.436   69.2       0  02:28    1783.53
  JK-storage               0.089   30.7    0.0    0.0       0.212   72.8       0  02:10    2300.00
  
  
  ***********************
  Outfall Loading Summary
  ***********************
  
  -----------------------------------------------------------
                         Flow       Avg       Max       Total
                         Freq      Flow      Flow      Volume
  Outfall Node           Pcnt       LPS       LPS    10^6 ltr
  -----------------------------------------------------------
  CC-1                  20.61    683.00    683.00       3.365
  CC-2                  26.93    683.00    683.00       3.767
  JK-1                  10.78   1000.00   1000.00       1.948
  JK-2                   4.02   1000.00   1000.00       0.870
  WSC                   99.95    237.47    554.63       4.706
  -----------------------------------------------------------
  System                32.46   3603.47   3880.40      14.656
  
  
  ********************
  Link Flow Summary
  ********************
  
  -----------------------------------------------------------------------------
                                 Maximum  Time of Max   Maximum    Max/    Max/
                                  |Flow|   Occurrence   |Veloc|    Full    Full
  Link                 Type          LPS  days hr:min     m/sec    Flow   Depth
  -----------------------------------------------------------------------------
  1                    CONDUIT    554.63     0  02:29      2.83    0.19    0.30
  WS02003060WS02003069 CONDUIT    552.67     0  02:27      1.64    0.22    0.34
  WS02003066WSF200     CONDUIT    536.10     0  02:27      2.85    0.09    0.22
  WS02003067WS02003066 CONDUIT    536.10     0  02:27      1.21    0.17    0.42
  WS02003069WS02003072 CONDUIT    552.94     0  02:28      1.37    0.27    0.39
  WS02003072WS02003073 CONDUIT    552.89     0  02:29      1.43    1.19    0.37
  WS02004401WS02004402 CONDUIT    537.11     0  02:21      0.98    0.64    0.86
  WS02004402WS02004403 CONDUIT    537.14     0  02:21      0.97    0.77    0.88
  WS02004403WS02004404 CONDUIT    536.85     0  02:21      0.92    0.39    0.93
  WS02004404WS02004405 CONDUIT    536.90     0  02:21      1.08    5.26    0.96
  WS02004405WS02004406 CONDUIT    537.03     0  02:22      0.99    1.06    0.96
  WS02004406WS02004407 CONDUIT    536.76     0  02:22      1.04    0.24    0.63
  WS02004407WS02004409 CONDUIT    536.60     0  02:22      1.47    0.19    0.48
  WS02004409WS02004410 CONDUIT    536.32     0  02:25      0.97    0.69    0.67
  WS02004410WS02004411 CONDUIT    536.15     0  02:26      0.93    0.73    0.69
  WS02004411WS02004412 CONDUIT    536.21     0  02:26      0.92    0.76    0.69
  WS02004412WS02004413 CONDUIT    536.13     0  02:27      0.82    0.36    0.78
  WS02004413WS02003067 CONDUIT    536.09     0  02:27      1.11    0.23    0.59
  WS02006109WS02006110 CONDUIT    565.51     0  02:11      1.13    1.09    1.00
  WS02006110WS02006113 CONDUIT    573.63     0  02:11      1.37    0.52    0.79
  WS02006111WS02006112 CONDUIT    546.06     0  02:11      1.81    0.26    0.67
  WS02006112WS02006115 CONDUIT    555.62     0  02:11      0.78    0.33    0.87
  WS02006113WS02006111 CONDUIT    563.59     0  03:03      2.47    0.68    0.46
  WS02006115WS02006116 CONDUIT    538.30     0  02:30      0.97    0.69    0.76
  WS02006116WS02004401 CONDUIT    537.74     0  02:21      0.98    0.74    0.84
  WS02006228WS02006109 CONDUIT    565.05     0  02:11      1.12    2.47    1.00
  WS02006229WS02006228 CONDUIT    564.02     0  02:11      1.14    1.87    1.00
  WS02006230WS02006229 CONDUIT    561.54     0  02:11      1.46   12.50    1.00
  WS02006231WS02006230 CONDUIT    573.85     0  03:07      1.56    8.70    1.00
  WS02006232WS02006231 CONDUIT    576.50     0  02:28      1.51    1.21    1.00
  WS02006234WS02006232 CONDUIT    575.71     0  02:28      1.53    1.16    1.00
  WS02006235WS02006234 CONDUIT    570.61     0  02:28      1.48    6.02    1.00
  WS02006238WS02006235 CONDUIT    424.02     0  02:35      1.46    0.95    1.00
  WS02006239WS02006238 CONDUIT    425.07     0  02:25      1.20    1.36    1.00
  WS02006240WS02006239 CONDUIT    424.27     0  02:25      1.32    1.34    1.00
  WS02006242WS02006240 CONDUIT    421.82     0  02:25      1.17    1.68    1.00
  WS02006243WS02006242 CONDUIT    421.33     0  02:25      1.43    0.90    1.00
  WS02006245WS02006243 CONDUIT    420.79     0  02:25      1.45    1.24    1.00
  WS02006247WS02006245 CONDUIT    420.13     0  02:35      1.43    3.33    1.00
  WS02006248WS02006247 CONDUIT    421.08     0  02:35      1.46    0.92    1.00
  WS02006249WS02006248 CONDUIT    422.24     0  02:35      1.39    2.31    1.00
  WS02006251WS02006249 CONDUIT    468.06     0  04:35      1.99    1.35    1.00
  WS02006252WS02006251 CONDUIT    406.72     0  02:04     24.61    1.49    1.00
  WS02006256WS02006235 CONDUIT    288.91     0  00:00      4.23    3.06    1.00
  WSF200WS02003060     CONDUIT    536.22     0  02:27      2.06    0.12    0.28
  YS02001580YS02001583 CONDUIT    116.92     0  01:55      0.74    0.45    1.00
  YS02001583YS02001586 CONDUIT    175.34     0  01:55      0.78    0.27    1.00
  YS02001586YS02001590 CONDUIT    318.53     0  02:13      1.26    0.56    1.00
  YS02001590YS02001593 CONDUIT    318.12     0  02:13      1.13    2.00    1.00
  YS02001593YS02001596 CONDUIT    318.01     0  02:15      1.75    0.50    1.00
  YS02001596YS02001600 CONDUIT    318.26     0  02:13      1.23    0.62    1.00
  YS02001600YS02001601 CONDUIT    317.92     0  02:21      1.12    0.55    1.00
  YS02001601YS02001602 CONDUIT    533.42     0  01:55      1.89    1.93    1.00
  YS02001602YS02001605 CONDUIT    533.06     0  01:55      1.89   11.28    1.00
  YS02001605YS02001607 CONDUIT    532.94     0  01:55      1.88    2.92    1.00
  YS02001607YS02001610 CONDUIT    538.87     0  01:55      0.69    0.51    1.00
  YS02001610YS02001613 CONDUIT    544.00     0  01:55      0.69    0.63    1.00
  YS02001613YS02001616 CONDUIT    552.04     0  01:55      0.71    0.47    1.00
  YS02001616YS02001619 CONDUIT    516.12     0  01:55      0.67    0.90    1.00
  YS02001619YS02001622 CONDUIT    945.62     0  01:55      1.21    1.39    1.00
  YS02001622YS02001625 CONDUIT    952.20     0  01:55      1.21    0.51    1.00
  YS02001625YS02001629 CONDUIT    953.78     0  01:55      1.22    0.45    1.00
  YS02001629YS02163301 CONDUIT    930.74     0  01:57      1.19    1.15    1.00
  YS02001633YS02163601 CONDUIT   1404.11     0  01:57      1.79    1.47    1.00
  YS02001641YS02001644 CONDUIT   1403.86     0  01:57      1.79    4.54    1.00
  YS02001644YS02001647 CONDUIT   1833.69     0  01:57      2.36    1.08    1.00
  YS02001647YS02001649 CONDUIT   1860.85     0  01:57      2.37    0.98    1.00
  YS02001649YS02001757 CONDUIT   2103.00     0  01:57      2.68    1.28    1.00
  YS02001652YS02001649 CONDUIT    934.73     0  02:01      1.19    0.46    1.00
  YS02001655YS02001652 CONDUIT    933.32     0  02:01      1.38    0.45    1.00
  YS02001658YS02001655 CONDUIT    932.67     0  02:01      1.95    0.40    1.00
  YS02001661YS02001658 CONDUIT    932.49     0  02:01      2.38    0.37    1.00
  YS02001664YS02001661 CONDUIT    931.38     0  02:01      2.41    0.29    0.90
  YS02001745YS02001748 CONDUIT    666.32     0  02:00      2.26    0.26    1.00
  YS02001748YS02001751 CONDUIT    668.45     0  02:00      1.76    0.34    1.00
  YS02001751YS02001754 CONDUIT    668.14     0  02:00      1.48    0.32    1.00
  YS02001754YS02001757 CONDUIT    670.29     0  02:00      0.85    0.27    1.00
  YS02001757CaochengTiaoxuchi CONDUIT   3517.69     0  02:00      4.48    1.52    1.00
  YS02001759YS02001757 CONDUIT   1448.01     0  01:59      1.84    1.03    1.00
  YS02001762YS02001759 CONDUIT    826.99     0  01:59      1.05    0.95    1.00
  YS02001765YS02001762 CONDUIT    826.29     0  01:59      1.05    0.77    1.00
  YS02001767YS02001765 CONDUIT    825.88     0  01:59      1.05    1.04    1.00
  YS02001770YS02001767 CONDUIT    826.31     0  01:59      1.05    3.27    1.00
  YS02001774YS02001770 CONDUIT    437.91     0  01:58      0.56    0.28    1.00
  YS02001779YS02001774 CONDUIT    442.24     0  01:58      0.57    0.22    1.00
  YS02001783YS02001784 CONDUIT   1164.41     0  02:00      2.32    1.61    1.00
  YS02001784YS02001785 CONDUIT   1165.54     0  02:00      2.32    2.71    1.00
  YS02001786YS02001788 CONDUIT   1165.61     0  02:00      2.48    2.25    0.89
  YS02001788YS02001790 CONDUIT   1174.91     0  01:58      2.72    0.87    0.84
  YS02001790YS02001791 CONDUIT   1299.97     0  02:00      3.45    1.41    0.71
  YS02001791YS02001793 CONDUIT   1244.44     0  02:06      6.72    0.53    0.44
  YS02001793JiankangQianchi CONDUIT   1247.66     0  02:17      2.50    0.10    0.65
  YS02001882YS02001884 CONDUIT     54.81     0  01:56      0.11    0.06    1.00
  YS02001884YS02001887 CONDUIT     74.17     0  01:56      0.09    0.10    1.00
  YS02001887YS02001890 CONDUIT    800.00     0  02:01      1.02    1.37    1.00
  YS02001890YS02001895 CONDUIT    518.59     0  02:04      0.66    0.24    1.00
  YS02001895YS02001898 CONDUIT    518.42     0  02:04      0.66    0.90    1.00
  YS02001898YS02001901 CONDUIT    518.69     0  02:04      0.66    0.33    1.00
  YS02001901YS02001904 CONDUIT    518.68     0  02:04      0.66    0.80    1.00
  YS02001904YS02001907 CONDUIT    518.30     0  02:04      0.66    0.18    1.00
  YS02001907YS02006553 CONDUIT    802.05     0  02:18      0.89    0.94    1.00
  YS02001910YS02001907 CONDUIT   1359.93     0  02:02      1.73    0.77    1.00
  YS02001915YS02001910 CONDUIT   1360.04     0  02:02      1.73    0.68    1.00
  YS02001918YS02001915 CONDUIT    473.52     0  01:58      0.60    0.26    1.00
  YS02001920YS02001918 CONDUIT    475.76     0  01:58      0.65    0.46    1.00
  YS02001923YS02001920 CONDUIT    479.81     0  01:58      0.70    0.22    1.00
  YS02001926YS02001923 CONDUIT    461.99     0  02:02      0.97    0.66    1.00
  YS02001929YS02001926 CONDUIT    460.67     0  02:02      1.16    0.22    1.00
  YS02006553YS02006556 CONDUIT    801.81     0  02:18      1.02    0.69    1.00
  YS02006556YS02006558 CONDUIT    803.10     0  02:18      1.02    0.63    1.00
  YS02006558YS02006561 CONDUIT   1170.21     0  01:57      4.14    2.59    1.00
  YS02006561YS02001783 CONDUIT   1164.20     0  02:00      2.32    0.60    1.00
  YS02163301YS02001633 CONDUIT    930.41     0  01:57      1.18    0.87    1.00
  YS02163601YS02164001 CONDUIT   1403.63     0  01:57      1.79    1.24    1.00
  YS02164001YS02001641 CONDUIT   1403.52     0  01:57      1.79    1.92    1.00
  CC-R1                PUMP       683.00     0  00:00              1.00
  CC-R2                PUMP       683.00     0  00:00              1.00
  CC-S1                PUMP       200.00     0  00:00              1.00
  CC-S2                PUMP       200.00     0  00:00              1.00
  JK-R1                PUMP      1000.00     0  00:00              1.00
  JK-R2                PUMP      1000.00     0  00:00              1.00
  JK-S                 PUMP       300.00     0  00:00              1.00
  
  
  ***************************
  Flow Classification Summary
  ***************************
  
  -------------------------------------------------------------------------------------
                      Adjusted    ---------- Fraction of Time in Flow Class ---------- 
                       /Actual         Up    Down  Sub   Sup   Up    Down  Norm  Inlet 
  Conduit               Length    Dry  Dry   Dry   Crit  Crit  Crit  Crit  Ltd   Ctrl  
  -------------------------------------------------------------------------------------
  1                       1.00   0.00  0.00  0.00  0.00  1.00  0.00  0.00  0.37  0.00
  WS02003060WS02003069    1.00   0.00  0.00  0.00  0.96  0.04  0.00  0.00  0.74  0.00
  WS02003066WSF200        1.00   0.13  0.00  0.00  0.00  0.87  0.00  0.00  0.78  0.00
  WS02003067WS02003066    1.00   0.10  0.02  0.00  0.88  0.00  0.00  0.00  0.00  0.00
  WS02003069WS02003072    1.00   0.00  0.00  0.00  0.99  0.01  0.00  0.00  0.80  0.00
  WS02003072WS02003073    1.00   0.00  0.00  0.00  0.00  0.00  0.00  1.00  0.00  0.00
  WS02004401WS02004402    1.00   0.02  0.00  0.00  0.98  0.00  0.00  0.00  0.00  0.00
  WS02004402WS02004403    1.00   0.02  0.00  0.00  0.97  0.00  0.00  0.00  0.00  0.00
  WS02004403WS02004404    1.00   0.00  0.03  0.00  0.97  0.00  0.00  0.00  0.00  0.00
  WS02004404WS02004405    1.00   0.00  0.00  0.00  1.00  0.00  0.00  0.00  0.01  0.00
  WS02004405WS02004406    1.00   0.00  0.00  0.00  1.00  0.00  0.00  0.00  0.00  0.00
  WS02004406WS02004407    1.00   0.00  0.05  0.00  0.95  0.00  0.00  0.00  0.00  0.00
  WS02004407WS02004409    1.00   0.05  0.00  0.00  0.94  0.01  0.00  0.00  0.94  0.00
  WS02004409WS02004410    1.00   0.05  0.00  0.00  0.95  0.00  0.00  0.00  0.03  0.00
  WS02004410WS02004411    1.00   0.05  0.00  0.00  0.95  0.00  0.00  0.00  0.01  0.00
  WS02004411WS02004412    1.00   0.05  0.00  0.00  0.95  0.00  0.00  0.00  0.00  0.00
  WS02004412WS02004413    1.00   0.05  0.00  0.00  0.94  0.00  0.00  0.00  0.01  0.00
  WS02004413WS02003067    1.00   0.06  0.04  0.00  0.00  0.00  0.90  0.00  0.00  0.00
  WS02006109WS02006110    1.00   0.00  0.01  0.00  0.98  0.00  0.01  0.00  0.00  0.00
  WS02006110WS02006113    1.00   0.01  0.01  0.00  0.98  0.00  0.00  0.00  0.00  0.00
  WS02006111WS02006112    1.00   0.02  0.00  0.00  0.98  0.00  0.00  0.00  0.98  0.00
  WS02006112WS02006115    1.00   0.02  0.00  0.00  0.97  0.00  0.00  0.00  0.00  0.00
  WS02006113WS02006111    1.00   0.02  0.00  0.00  0.00  0.98  0.00  0.00  0.14  0.00
  WS02006115WS02006116    1.00   0.02  0.00  0.00  0.97  0.00  0.00  0.01  0.00  0.00
  WS02006116WS02004401    1.00   0.02  0.00  0.00  0.98  0.00  0.00  0.00  0.00  0.00
  WS02006228WS02006109    1.00   0.00  0.00  0.00  1.00  0.00  0.00  0.00  0.00  0.00
  WS02006229WS02006228    1.00   0.00  0.00  0.00  0.99  0.00  0.00  0.01  0.00  0.00
  WS02006230WS02006229    1.00   0.00  0.00  0.00  0.99  0.00  0.00  0.01  0.02  0.00
  WS02006231WS02006230    1.00   0.00  0.00  0.00  0.20  0.00  0.80  0.00  0.00  0.00
  WS02006232WS02006231    1.00   0.00  0.00  0.00  0.99  0.00  0.01  0.00  0.00  0.00
  WS02006234WS02006232    1.00   0.00  0.00  0.00  1.00  0.00  0.00  0.00  0.06  0.00
  WS02006235WS02006234    1.00   0.00  0.00  0.00  0.91  0.00  0.09  0.00  0.00  0.00
  WS02006238WS02006235    1.00   0.00  0.00  0.00  1.00  0.00  0.00  0.00  0.00  0.00
  WS02006239WS02006238    1.00   0.00  0.00  0.00  1.00  0.00  0.00  0.00  0.17  0.00
  WS02006240WS02006239    1.00   0.00  0.00  0.00  0.65  0.00  0.00  0.35  0.03  0.00
  WS02006242WS02006240    1.00   0.00  0.00  0.00  0.99  0.00  0.01  0.00  0.00  0.00
  WS02006243WS02006242    1.00   0.00  0.00  0.00  0.99  0.00  0.00  0.01  0.58  0.00
  WS02006245WS02006243    1.00   0.00  0.00  0.00  0.79  0.00  0.00  0.21  0.01  0.00
  WS02006247WS02006245    1.00   0.00  0.00  0.00  0.96  0.00  0.00  0.04  0.00  0.00
  WS02006248WS02006247    1.00   0.00  0.00  0.00  0.98  0.00  0.00  0.02  0.49  0.00
  WS02006249WS02006248    1.00   0.00  0.00  0.00  0.43  0.00  0.57  0.00  0.00  0.00
  WS02006251WS02006249    1.00   0.00  0.00  0.00  0.99  0.01  0.00  0.00  0.57  0.00
  WS02006252WS02006251    1.00   0.00  0.53  0.00  0.08  0.00  0.39  0.00  0.00  0.00
  WS02006256WS02006235    1.00   0.00  0.00  0.00  0.99  0.01  0.00  0.00  0.00  0.00
  WSF200WS02003060        1.00   0.00  0.13  0.00  0.35  0.53  0.00  0.00  0.55  0.00
  YS02001580YS02001583    1.00   0.24  0.58  0.00  0.18  0.00  0.00  0.00  0.67  0.00
  YS02001583YS02001586    1.00   0.43  0.33  0.00  0.24  0.00  0.00  0.00  0.67  0.00
  YS02001586YS02001590    1.00   0.13  0.00  0.00  0.41  0.04  0.00  0.42  0.36  0.00
  YS02001590YS02001593    1.00   0.13  0.01  0.00  0.11  0.00  0.76  0.00  0.00  0.00
  YS02001593YS02001596    1.00   0.14  0.00  0.00  0.12  0.01  0.00  0.73  0.02  0.00
  YS02001596YS02001600    1.00   0.14  0.00  0.00  0.18  0.01  0.00  0.67  0.05  0.00
  YS02001600YS02001601    1.00   0.13  0.01  0.00  0.86  0.00  0.00  0.00  0.62  0.00
  YS02001601YS02001602    1.00   0.13  0.01  0.00  0.86  0.00  0.00  0.00  0.00  0.00
  YS02001602YS02001605    1.00   0.14  0.00  0.00  0.86  0.00  0.00  0.00  0.00  0.00
  YS02001605YS02001607    1.00   0.14  0.00  0.00  0.86  0.00  0.00  0.00  0.00  0.00
  YS02001607YS02001610    1.00   0.13  0.01  0.00  0.86  0.00  0.00  0.00  0.02  0.00
  YS02001610YS02001613    1.00   0.13  0.00  0.00  0.87  0.00  0.00  0.00  0.01  0.00
  YS02001613YS02001616    1.00   0.13  0.00  0.00  0.87  0.00  0.00  0.00  0.01  0.00
  YS02001616YS02001619    1.00   0.13  0.00  0.00  0.87  0.00  0.00  0.00  0.00  0.00
  YS02001619YS02001622    1.00   0.13  0.00  0.00  0.87  0.00  0.00  0.00  0.29  0.00
  YS02001622YS02001625    1.00   0.13  0.00  0.00  0.87  0.00  0.00  0.00  0.05  0.00
  YS02001625YS02001629    1.00   0.13  0.05  0.00  0.15  0.00  0.67  0.00  0.00  0.00
  YS02001629YS02163301    1.00   0.16  0.01  0.00  0.83  0.00  0.00  0.00  0.00  0.00
  YS02001633YS02163601    1.00   0.00  0.01  0.00  0.99  0.00  0.00  0.00  0.15  0.00
  YS02001641YS02001644    1.00   0.00  0.01  0.00  0.99  0.00  0.00  0.00  0.00  0.00
  YS02001644YS02001647    1.00   0.00  0.18  0.00  0.82  0.00  0.00  0.00  0.00  0.00
  YS02001647YS02001649    1.00   0.00  0.18  0.00  0.54  0.28  0.00  0.00  0.58  0.00
  YS02001649YS02001757    1.00   0.00  0.00  0.00  0.71  0.29  0.00  0.00  0.45  0.00
  YS02001652YS02001649    1.00   0.00  0.00  0.00  0.96  0.04  0.00  0.00  0.76  0.00
  YS02001655YS02001652    1.00   0.00  0.00  0.00  0.17  0.01  0.00  0.82  0.05  0.00
  YS02001658YS02001655    1.00   0.00  0.14  0.00  0.65  0.21  0.00  0.00  0.69  0.00
  YS02001661YS02001658    1.00   0.14  0.00  0.00  0.49  0.37  0.00  0.00  0.70  0.00
  YS02001664YS02001661    1.00   0.13  0.00  0.00  0.78  0.10  0.00  0.00  0.85  0.00
  YS02001745YS02001748    1.00   0.00  0.00  0.00  0.08  0.01  0.00  0.91  0.04  0.00
  YS02001748YS02001751    1.00   0.00  0.00  0.00  0.82  0.18  0.00  0.00  0.78  0.00
  YS02001751YS02001754    1.00   0.00  0.00  0.00  0.15  0.00  0.00  0.85  0.03  0.00
  YS02001754YS02001757    1.00   0.00  0.00  0.00  1.00  0.00  0.00  0.00  0.84  0.00
  YS02001757CaochengTiaoxuchi    1.00   0.00  0.00  0.00  0.98  0.02  0.00  0.00  0.77  0.00
  YS02001759YS02001757    1.00   0.00  0.00  0.00  1.00  0.00  0.00  0.00  0.59  0.00
  YS02001762YS02001759    1.00   0.00  0.00  0.00  1.00  0.00  0.00  0.00  0.06  0.00
  YS02001765YS02001762    1.00   0.00  0.00  0.00  1.00  0.00  0.00  0.00  0.76  0.00
  YS02001767YS02001765    1.00   0.00  0.00  0.00  1.00  0.00  0.00  0.00  0.00  0.00
  YS02001770YS02001767    1.00   0.00  0.00  0.00  1.00  0.00  0.00  0.00  0.00  0.00
  YS02001774YS02001770    1.00   0.00  0.13  0.00  0.69  0.00  0.17  0.00  0.03  0.00
  YS02001779YS02001774    1.00   0.00  0.00  0.00  1.00  0.00  0.00  0.00  0.80  0.00
  YS02001783YS02001784    1.00   0.00  0.19  0.00  0.81  0.00  0.00  0.00  0.56  0.00
  YS02001784YS02001785    1.00   0.00  0.00  0.00  1.00  0.00  0.00  0.00  0.17  0.00
  YS02001786YS02001788    1.00   0.00  0.00  0.00  0.80  0.20  0.00  0.00  0.00  0.00
  YS02001788YS02001790    1.00   0.00  0.00  0.00  0.22  0.78  0.00  0.00  0.82  0.00
  YS02001790YS02001791    1.00   0.00  0.00  0.00  0.01  0.99  0.00  0.00  0.15  0.00
  YS02001791YS02001793    1.00   0.00  0.00  0.00  0.00  1.00  0.00  0.00  0.01  0.00
  YS02001793JiankangQianchi    1.00   0.00  0.00  0.00  0.98  0.01  0.00  0.00  0.96  0.00
  YS02001882YS02001884    1.00   0.16  0.01  0.00  0.83  0.00  0.00  0.00  0.00  0.00
  YS02001884YS02001887    1.00   0.06  0.05  0.00  0.89  0.00  0.00  0.00  0.00  0.00
  YS02001887YS02001890    1.00   0.00  0.00  0.00  0.97  0.00  0.03  0.00  0.00  0.00
  YS02001890YS02001895    1.00   0.00  0.17  0.00  0.83  0.00  0.00  0.00  0.00  0.00
  YS02001895YS02001898    1.00   0.17  0.00  0.00  0.81  0.00  0.02  0.00  0.00  0.00
  YS02001898YS02001901    1.00   0.17  0.00  0.00  0.83  0.00  0.00  0.00  0.01  0.00
  YS02001901YS02001904    1.00   0.17  0.00  0.00  0.83  0.00  0.00  0.00  0.00  0.00
  YS02001904YS02001907    1.00   0.00  0.17  0.00  0.83  0.00  0.00  0.00  0.00  0.00
  YS02001907YS02006553    1.00   0.00  0.02  0.00  0.98  0.00  0.00  0.00  0.00  0.00
  YS02001910YS02001907    1.00   0.00  0.00  0.00  0.97  0.00  0.00  0.03  0.12  0.00
  YS02001915YS02001910    1.00   0.00  0.00  0.00  0.96  0.04  0.00  0.00  0.16  0.00
  YS02001918YS02001915    1.00   0.00  0.01  0.00  0.98  0.02  0.00  0.00  0.76  0.00
  YS02001920YS02001918    1.00   0.00  0.01  0.00  0.99  0.00  0.00  0.00  0.00  0.00
  YS02001923YS02001920    1.00   0.00  0.00  0.00  1.00  0.00  0.00  0.00  0.93  0.00
  YS02001926YS02001923    1.00   0.00  0.07  0.00  0.06  0.00  0.87  0.00  0.00  0.00
  YS02001929YS02001926    1.00   0.00  0.13  0.00  0.87  0.00  0.00  0.00  0.82  0.00
  YS02006553YS02006556    1.00   0.01  0.00  0.00  0.99  0.00  0.00  0.00  0.03  0.00
  YS02006556YS02006558    1.00   0.00  0.00  0.00  1.00  0.00  0.00  0.00  0.00  0.00
  YS02006558YS02006561    1.00   0.19  0.00  0.00  0.05  0.76  0.00  0.00  0.18  0.00
  YS02006561YS02001783    1.00   0.19  0.00  0.00  0.08  0.73  0.00  0.00  0.69  0.00
  YS02163301YS02001633    1.00   0.00  0.16  0.00  0.84  0.00  0.00  0.00  0.00  0.00
  YS02163601YS02164001    1.00   0.00  0.08  0.00  0.92  0.00  0.00  0.00  0.00  0.00
  YS02164001YS02001641    1.00   0.01  0.07  0.00  0.92  0.00  0.00  0.00  0.06  0.00
  
  
  *************************
  Conduit Surcharge Summary
  *************************
  
  ----------------------------------------------------------------------------
                                                           Hours        Hours 
                         --------- Hours Full --------   Above Full   Capacity
  Conduit                Both Ends  Upstream  Dnstream   Normal Flow   Limited
  ----------------------------------------------------------------------------
  WS02003072WS02003073        0.01      0.01      0.01      0.88         0.01
  WS02004404WS02004405        0.01      0.01      0.01      3.18         0.01
  WS02004405WS02004406        0.01      0.01      0.01      0.48         0.01
  WS02006109WS02006110        0.51      0.51      1.41      0.58         0.01
  WS02006110WS02006113        0.01      0.01      1.39      0.01         0.01
  WS02006111WS02006112        0.01      0.01      1.75      0.01         0.01
  WS02006112WS02006115        0.01      0.01      0.53      0.01         0.01
  WS02006228WS02006109        1.38      1.42      1.38      2.05         1.38
  WS02006229WS02006228        1.38      1.38      1.38      1.75         1.37
  WS02006230WS02006229        1.53      1.69      1.53      3.79         1.53
  WS02006231WS02006230        0.51      0.51      0.64      3.39         0.01
  WS02006232WS02006231        0.60      0.60      1.42      0.65         0.01
  WS02006234WS02006232        1.35      1.35      1.42      0.64         0.64
  WS02006235WS02006234        0.86      0.86      1.35      3.16         0.01
  WS02006238WS02006235        1.37      1.37      1.43      0.01         0.01
  WS02006239WS02006238        1.38      1.41      1.38      1.69         1.25
  WS02006240WS02006239        1.37      1.38      1.37      1.69         1.18
  WS02006242WS02006240        1.37      1.37      1.53      1.92         0.01
  WS02006243WS02006242        1.37      1.37      1.45      0.01         0.03
  WS02006245WS02006243        1.37      1.37      1.37      1.21         0.88
  WS02006247WS02006245        1.36      1.38      1.36      2.79         1.36
  WS02006248WS02006247        1.36      1.36      1.37      0.01         0.03
  WS02006249WS02006248        1.35      1.35      1.35      2.76         0.01
  WS02006251WS02006249        1.35      1.36      1.35      1.85         1.31
  WS02006252WS02006251        1.93      1.93      1.94      1.93         0.01
  WS02006256WS02006235        3.24      3.28      6.53      0.96         0.01
  YS02001580YS02001583        0.55      0.55      0.59      0.01         0.01
  YS02001583YS02001586        0.56      0.56      0.67      0.01         0.01
  YS02001586YS02001590        0.68      0.68      0.74      0.01         0.01
  YS02001590YS02001593        0.74      0.74      0.76      0.78         0.01
  YS02001593YS02001596        0.75      0.75      0.84      0.01         0.01
  YS02001596YS02001600        0.88      0.88      0.98      0.01         0.01
  YS02001600YS02001601        1.03      1.03      1.33      0.01         0.01
  YS02001601YS02001602        1.21      1.21      1.37      0.98         0.01
  YS02001602YS02001605        1.16      1.16      1.21      2.14         0.01
  YS02001605YS02001607        1.11      1.16      1.11      1.30         1.11
  YS02001607YS02001610        0.72      0.72      0.74      0.01         0.01
  YS02001610YS02001613        0.71      0.71      0.74      0.01         0.01
  YS02001613YS02001616        0.67      0.67      0.71      0.01         0.01
  YS02001616YS02001619        0.66      0.66      0.67      0.01         0.01
  YS02001619YS02001622        0.66      0.66      0.66      0.76         0.63
  YS02001622YS02001625        0.66      0.66      0.82      0.01         0.01
  YS02001625YS02001629        0.61      0.61      0.82      0.01         0.01
  YS02001629YS02163301        0.82      0.82      0.82      0.18         0.17
  YS02001633YS02163601        0.84      0.84      0.87      0.35         0.33
  YS02001641YS02001644        0.75      0.78      0.75      1.40         0.74
  YS02001644YS02001647        0.57      0.57      0.75      0.04         0.01
  YS02001647YS02001649        0.57      0.57      0.67      0.01         0.01
  YS02001649YS02001757        0.67      0.67      0.73      0.07         0.07
  YS02001652YS02001649        0.51      0.51      0.67      0.01         0.01
  YS02001655YS02001652        0.34      0.34      0.48      0.01         0.01
  YS02001658YS02001655        0.18      0.18      0.34      0.01         0.01
  YS02001661YS02001658        0.02      0.02      0.18      0.01         0.01
  YS02001664YS02001661        0.01      0.01      0.06      0.01         0.01
  YS02001745YS02001748        0.01      0.01      0.12      0.01         0.01
  YS02001748YS02001751        0.16      0.16      0.24      0.01         0.01
  YS02001751YS02001754        0.24      0.24      0.39      0.01         0.01
  YS02001754YS02001757        0.43      0.43      0.73      0.01         0.01
  YS02001757CaochengTiaoxuchi        0.69      0.73      1.33      0.35         0.28
  YS02001759YS02001757        0.64      0.64      0.73      0.01         0.03
  YS02001762YS02001759        0.61      0.61      0.64      0.01         0.02
  YS02001765YS02001762        0.56      0.56      0.61      0.01         0.01
  YS02001767YS02001765        0.53      0.53      0.56      0.01         0.02
  YS02001770YS02001767        0.53      0.53      0.53      0.50         0.39
  YS02001774YS02001770        0.51      0.51      0.59      0.01         0.01
  YS02001779YS02001774        0.38      0.38      0.59      0.01         0.01
  YS02001783YS02001784        0.47      0.50      0.47      0.63         0.47
  YS02001784YS02001785        0.38      0.47      0.38      0.83         0.38
  YS02001786YS02001788        0.01      0.38      0.01      0.71         0.01
  YS02001790YS02001791        0.01      0.01      0.01      0.46         0.01
  YS02001793JiankangQianchi        0.01      0.01      7.06      0.01         0.01
  YS02001882YS02001884        0.44      0.44      0.45      0.01         0.01
  YS02001884YS02001887        0.48      0.48      0.49      0.01         0.01
  YS02001887YS02001890        0.50      0.50      0.51      0.11         0.01
  YS02001890YS02001895        0.44      0.44      0.52      0.01         0.01
  YS02001895YS02001898        0.43      0.43      0.44      0.01         0.01
  YS02001898YS02001901        0.44      0.44      0.47      0.01         0.01
  YS02001901YS02001904        0.47      0.47      0.47      0.01         0.01
  YS02001904YS02001907        0.47      0.47      0.70      0.01         0.01
  YS02001907YS02006553        0.84      0.84      0.90      0.01         0.01
  YS02001910YS02001907        0.52      0.52      0.68      0.01         0.01
  YS02001915YS02001910        0.44      0.44      0.52      0.01         0.01
  YS02001918YS02001915        0.36      0.36      0.44      0.01         0.01
  YS02001920YS02001918        0.36      0.36      0.38      0.01         0.01
  YS02001923YS02001920        0.32      0.32      0.38      0.01         0.01
  YS02001926YS02001923        0.07      0.07      0.11      0.01         0.01
  YS02001929YS02001926        0.01      0.01      0.11      0.01         0.01
  YS02006553YS02006556        0.60      0.60      0.70      0.01         0.01
  YS02006556YS02006558        0.65      0.65      0.71      0.01         0.01
  YS02006558YS02006561        0.40      0.59      0.40      0.78         0.40
  YS02006561YS02001783        0.33      0.33      0.50      0.01         0.01
  YS02163301YS02001633        0.82      0.82      0.86      0.01         0.01
  YS02163601YS02164001        0.79      0.79      0.87      0.06         0.01
  YS02164001YS02001641        0.78      0.79      0.78      0.67         0.59
  
  
  ***************
  Pumping Summary
  ***************
  
  ---------------------------------------------------------------------------------------------------------
                                                  Min       Avg       Max     Total     Power    % Time Off
                        Percent   Number of      Flow      Flow      Flow    Volume     Usage    Pump Curve
  Pump                 Utilized   Start-Ups       LPS       LPS       LPS  10^6 ltr     Kw-hr    Low   High
  ---------------------------------------------------------------------------------------------------------
  CC-R1                   17.12           9      0.00    683.00    683.00     3.368     62.49    0.0   13.0
  CC-R2                   19.19          21      0.00    683.00    683.00     3.776     68.64    0.0   34.9
  CC-S1                   35.64          16      0.00    200.00    200.00     2.053     12.28    0.0    0.0
  CC-S2                   24.41          17      0.00    200.00    200.00     1.406      8.35    0.0    0.0
  JK-R1                    6.77          13      0.00   1000.00   1000.00     1.951     21.75    0.0    0.0
  JK-R2                    3.02           9      0.00   1000.00   1000.00     0.871      7.41    0.0    0.0
  JK-S                    11.73          24      0.00    300.00    300.00     1.014     15.71    0.0    0.0
  

  Analysis begun on:  Wed Dec 25 13:06:01 2024
  Analysis ended on:  Wed Dec 25 13:06:02 2024
  Total elapsed time: 00:00:01