
  EPA STORM WATER MANAGEMENT MODEL - VERSION 5.2 (Build 5.2.4)
  PYSWMM TOOLKIT API - VERSION v1.0 (2023-11-27)
  ------------------------------------------------------------

  WARNING 04: minimum elevation drop used for Conduit WS02004404WS02004405
  WARNING 03: negative offset ignored for Link YS02001904YS02001907
  
  ****************
  Analysis Options
  ****************
  Flow Units ............... LPS
  Process Models:
    Rainfall/Runoff ........ YES
    RDII ................... NO
    Snowmelt ............... NO
    Groundwater ............ NO
    Flow Routing ........... YES
    Ponding Allowed ........ NO
    Water Quality .......... NO
  Infiltration Method ...... HORTON
  Flow Routing Method ...... DYNWAVE
  Surcharge Method ......... EXTRAN
  Starting Date ............ 08/28/2015 08:00:00
  Ending Date .............. 08/28/2015 16:00:00
  Antecedent Dry Days ...... 8.0
  Report Time Step ......... 00:01:00
  Wet Time Step ............ 00:01:00
  Dry Time Step ............ 00:01:00
  Routing Time Step ........ 30.00 sec
  Variable Time Step ....... YES
  Maximum Trials ........... 8
  Number of Threads ........ 4
  Head Tolerance ........... 0.001500 m
  
  
  **************************        Volume         Depth
  Runoff Quantity Continuity     hectare-m            mm
  **************************     ---------       -------
  Total Precipitation ......         2.789        84.091
  Evaporation Loss .........         0.000         0.000
  Infiltration Loss ........         0.101         3.054
  Surface Runoff ...........         2.656        80.065
  Final Storage ............         0.033         0.995
  Continuity Error (%) .....        -0.027
  
  
  **************************        Volume        Volume
  Flow Routing Continuity        hectare-m      10^6 ltr
  **************************     ---------     ---------
  Dry Weather Inflow .......         0.025         0.251
  Wet Weather Inflow .......         2.656        26.557
  Groundwater Inflow .......         0.000         0.000
  RDII Inflow ..............         0.000         0.000
  External Inflow ..........         0.083         0.834
  External Outflow .........         1.705        17.051
  Flooding Loss ............         1.027        10.266
  Evaporation Loss .........         0.000         0.000
  Exfiltration Loss ........         0.000         0.000
  Initial Stored Volume ....         0.243         2.431
  Final Stored Volume ......         0.281         2.808
  Continuity Error (%) .....        -0.175
  
  
  *************************
  Highest Continuity Errors
  *************************
  Node YS02001583 (-10.62%)
  Node YS02001884 (5.09%)
  Node WS02006256 (-1.04%)
  
  
  ***************************
  Time-Step Critical Elements
  ***************************
  Link WS02006252WS02006251 (41.13%)
  Link WS02004404WS02004405 (16.35%)
  Link WS02006238WS02006235 (11.67%)
  Link YS02001791YS02001793 (7.42%)
  Link WS02006235WS02006234 (6.81%)
  
  
  ********************************
  Highest Flow Instability Indexes
  ********************************
  Link WS02006113WS02006111 (45)
  Link WS02006111WS02006112 (27)
  Link WS02004404WS02004405 (21)
  Link WS02004403WS02004404 (20)
  Link WS02006252WS02006251 (18)
  
  
  *********************************
  Most Frequent Nonconverging Nodes
  *********************************
  Node CC-1 (16.85%)
  Node CC-2 (16.85%)
  Node JK-1 (16.85%)
  Node JK-2 (16.85%)
  Node WSC (16.85%)
  
  
  *************************
  Routing Time Step Summary
  *************************
  Minimum Time Step           :     0.03 sec
  Average Time Step           :     2.07 sec
  Maximum Time Step           :     7.04 sec
  % of Time in Steady State   :     0.00
  Average Iterations per Step :     3.42
  % of Steps Not Converging   :    16.85
  Time Step Frequencies       :
     30.000 - 13.228 sec      :     0.00 %
     13.228 -  5.833 sec      :     8.52 %
      5.833 -  2.572 sec      :    19.93 %
      2.572 -  1.134 sec      :    24.03 %
      1.134 -  0.500 sec      :    47.52 %
  
  
  ***************************
  Subcatchment Runoff Summary
  ***************************
  
  ------------------------------------------------------------------------------------------------------------------------------
                            Total      Total      Total      Total     Imperv       Perv      Total       Total     Peak  Runoff
                           Precip      Runon       Evap      Infil     Runoff     Runoff     Runoff      Runoff   Runoff   Coeff
  Subcatchment                 mm         mm         mm         mm         mm         mm         mm    10^6 ltr      LPS
  ------------------------------------------------------------------------------------------------------------------------------
  sub60                     84.09       0.00       0.00       1.85      72.81       8.24      81.05        1.06   682.87   0.964
  sub61                     84.09       0.00       0.00       2.68      68.67      11.62      80.29        1.47   943.84   0.955
  sub62                     84.09       0.00       0.00       1.24      76.09       5.50      81.58        2.24  1327.97   0.970
  sub63                     84.09       0.00       0.00       4.92      58.74      19.47      78.21        1.78  1044.66   0.930
  sub64                     84.09       0.00       0.00       2.49      70.28      10.13      80.40        1.93  1073.49   0.956
  sub65                     84.09       0.00       0.00       2.16      71.91       8.78      80.69        2.22  1197.95   0.960
  sub66                     84.09       0.00       0.00       6.03      58.63      18.36      76.99        3.59  1546.12   0.916
  sub67                     84.09       0.00       0.00       1.19      76.13       5.54      81.67        1.52  1038.30   0.971
  sub68                     84.09       0.00       0.00       2.22      71.14       9.55      80.70        2.22  1363.13   0.960
  sub69                     84.09       0.00       0.00       1.98      71.37      10.64      82.01        3.04  1599.51   0.975
  sub70                     84.09       0.00       0.00       6.52      55.34      22.08      77.42        2.24   870.02   0.921
  sub71                     84.09       0.00       0.00       1.27      76.04       5.46      81.51        2.13  1163.50   0.969
  sub72                     84.09       0.00       0.00       1.12      76.81       4.76      81.57        1.12   558.92   0.970
  
  
  ******************
  Node Depth Summary
  ******************
  
  ---------------------------------------------------------------------------------
                                 Average  Maximum  Maximum  Time of Max    Reported
                                   Depth    Depth      HGL   Occurrence   Max Depth
  Node                 Type       Meters   Meters   Meters  days hr:min      Meters
  ---------------------------------------------------------------------------------
  WS02003060           JUNCTION     0.24     0.38     5.31     0  02:11        0.38
  WS02003066           JUNCTION     0.20     0.30     5.85     0  02:08        0.30
  WS02003067           JUNCTION     0.51     0.70     6.02     0  02:07        0.70
  WS02003069           JUNCTION     0.27     0.43     5.01     0  02:09        0.43
  WS02003072           JUNCTION     0.33     0.50     4.87     0  02:09        0.50
  WS02003073           JUNCTION     0.19     0.30     4.36     0  02:10        0.30
  WS02004401           JUNCTION     0.61     0.87     6.87     0  02:05        0.87
  WS02004402           JUNCTION     0.64     0.90     6.86     0  02:11        0.90
  WS02004403           JUNCTION     0.66     0.92     6.85     0  02:10        0.92
  WS02004404           JUNCTION     0.74     1.02     6.87     0  02:00        1.00
  WS02004405           JUNCTION     0.72     0.97     6.82     0  02:11        0.96
  WS02004406           JUNCTION     0.74     0.96     6.79     0  02:06        0.96
  WS02004407           JUNCTION     0.18     0.30     6.61     0  02:06        0.30
  WS02004409           JUNCTION     0.40     0.67     6.44     0  02:06        0.67
  WS02004410           JUNCTION     0.43     0.68     6.40     0  02:06        0.68
  WS02004411           JUNCTION     0.45     0.69     6.37     0  02:07        0.69
  WS02004412           JUNCTION     0.47     0.70     6.34     0  02:07        0.70
  WS02004413           JUNCTION     0.63     0.86     6.33     0  02:07        0.86
  WS02006109           JUNCTION     0.66     1.27     7.89     0  02:11        1.01
  WS02006110           JUNCTION     0.66     1.38     7.97     0  02:11        0.95
  WS02006111           JUNCTION     0.18     0.29     7.00     0  02:39        0.29
  WS02006112           JUNCTION     0.76     1.10     6.98     0  02:28        1.09
  WS02006113           JUNCTION     0.27     0.46     7.35     0  03:14        0.46
  WS02006115           JUNCTION     0.49     0.77     6.91     0  02:10        0.77
  WS02006116           JUNCTION     0.58     0.85     6.89     0  02:10        0.85
  WS02006228           JUNCTION     0.65     1.39     8.04     0  02:37        1.10
  WS02006229           JUNCTION     0.63     1.47     8.16     0  02:37        1.12
  WS02006230           JUNCTION     0.63     1.75     8.50     0  02:37        1.23
  WS02006231           JUNCTION     0.43     1.41     8.53     0  01:55        1.07
  WS02006232           JUNCTION     0.57     1.48     8.52     0  02:37        1.24
  WS02006234           JUNCTION     0.50     1.68     8.84     0  02:05        1.44
  WS02006235           JUNCTION     0.54     1.70     8.86     0  02:05        1.67
  WS02006238           JUNCTION     0.57     1.75     8.89     0  02:05        1.73
  WS02006239           JUNCTION     0.53     1.73     8.94     0  02:33        1.73
  WS02006240           JUNCTION     0.50     1.65     8.95     0  02:33        1.65
  WS02006242           JUNCTION     0.57     1.55     8.82     0  02:05        1.55
  WS02006243           JUNCTION     0.48     1.48     8.90     0  03:02        1.48
  WS02006245           JUNCTION     0.49     1.46     8.94     0  03:02        1.46
  WS02006247           JUNCTION     0.51     1.37     8.87     0  03:02        1.37
  WS02006248           JUNCTION     0.48     1.10     8.69     0  01:45        1.10
  WS02006249           JUNCTION     0.51     1.09     8.69     0  01:42        1.09
  WS02006251           JUNCTION     0.51     1.38     9.05     0  01:42        1.37
  WS02006252           JUNCTION     0.36     1.50     9.74     0  00:00        0.94
  WS02006256           JUNCTION     1.04     2.35     9.28     0  00:00        2.35
  WSF200               JUNCTION     0.17     0.29     5.52     0  02:08        0.29
  YS02001580           JUNCTION     0.12     1.05     9.59     0  01:33        0.77
  YS02001583           JUNCTION     0.16     1.14     9.64     0  01:33        0.85
  YS02001586           JUNCTION     0.23     1.13     9.30     0  01:33        1.13
  YS02001590           JUNCTION     0.33     1.40     9.26     0  01:33        1.38
  YS02001593           JUNCTION     0.27     1.37     9.24     0  01:33        1.28
  YS02001596           JUNCTION     0.36     1.71     9.13     0  01:33        1.65
  YS02001600           JUNCTION     0.42     1.87     9.00     0  01:33        1.87
  YS02001601           JUNCTION     0.61     2.06     8.90     0  01:32        2.06
  YS02001602           JUNCTION     0.52     1.87     8.77     0  01:33        1.87
  YS02001605           JUNCTION     0.49     1.78     8.68     0  01:33        1.78
  YS02001607           JUNCTION     0.48     1.68     8.53     0  02:09        1.65
  YS02001610           JUNCTION     0.53     1.68     8.48     0  01:33        1.68
  YS02001613           JUNCTION     0.49     1.67     8.51     0  01:33        1.67
  YS02001616           JUNCTION     0.42     1.61     8.52     0  01:33        1.61
  YS02001619           JUNCTION     0.39     1.61     8.54     0  01:33        1.61
  YS02001622           JUNCTION     0.38     1.62     8.52     0  01:33        1.59
  YS02001625           JUNCTION     0.65     1.78     8.38     0  01:33        1.78
  YS02001629           JUNCTION     0.51     1.85     8.40     0  01:33        1.85
  YS02001633           JUNCTION     0.59     2.06     8.51     0  01:35        2.04
  YS02001641           JUNCTION     0.58     1.97     8.41     0  01:35        1.94
  YS02001644           JUNCTION     0.57     1.92     8.35     0  01:35        1.92
  YS02001647           JUNCTION     0.37     1.84     8.45     0  01:35        1.78
  YS02001649           JUNCTION     0.42     2.05     8.44     0  01:35        2.05
  YS02001652           JUNCTION     0.31     2.16     8.76     0  01:35        1.93
  YS02001655           JUNCTION     0.25     2.20     9.05     0  01:35        1.76
  YS02001658           JUNCTION     0.18     2.30     9.44     0  01:36        2.30
  YS02001661           JUNCTION     0.19     2.46     9.86     0  01:36        1.40
  YS02001664           JUNCTION     0.07     2.31    10.23     0  01:36        0.97
  YS02001745           JUNCTION     0.09     2.35     9.87     0  01:36        0.85
  YS02001748           JUNCTION     0.17     2.27     9.35     0  01:36        1.28
  YS02001751           JUNCTION     0.22     2.20     9.08     0  01:36        1.47
  YS02001754           JUNCTION     0.29     2.20     8.81     0  01:35        1.72
  YS02001757           JUNCTION     0.46     2.21     8.47     0  01:36        2.06
  YS02001759           JUNCTION     0.39     2.21     8.57     0  01:36        2.06
  YS02001762           JUNCTION     0.38     2.15     8.55     0  01:36        2.03
  YS02001765           JUNCTION     0.36     2.10     8.55     0  01:36        1.98
  YS02001767           JUNCTION     0.36     2.03     8.52     0  01:35        1.95
  YS02001770           JUNCTION     0.36     1.95     8.44     0  01:35        1.95
  YS02001774           JUNCTION     0.43     2.05     8.47     0  01:35        2.00
  YS02001779           JUNCTION     0.27     1.68     8.37     0  01:35        1.68
  YS02001783           JUNCTION     0.26     1.40     7.54     0  01:35        1.40
  YS02001784           JUNCTION     0.27     1.25     7.32     0  01:35        1.25
  YS02001786           JUNCTION     0.23     0.99     7.02     0  01:34        0.93
  YS02001788           JUNCTION     0.16     0.63     6.60     0  01:35        0.62
  YS02001790           JUNCTION     0.19     0.73     6.37     0  01:40        0.72
  YS02001791           JUNCTION     0.12     0.44     5.91     0  01:40        0.43
  YS02001793           JUNCTION     0.07     0.30     5.13     0  01:41        0.30
  YS02001882           JUNCTION     0.34     1.76     8.48     0  01:34        1.67
  YS02001884           JUNCTION     0.43     1.83     8.45     0  01:34        1.77
  YS02001887           JUNCTION     0.51     1.88     8.42     0  01:34        1.85
  YS02001890           JUNCTION     0.54     1.81     8.32     0  01:34        1.81
  YS02001895           JUNCTION     0.31     1.65     8.40     0  01:34        1.57
  YS02001898           JUNCTION     0.31     1.70     8.43     0  01:34        1.61
  YS02001901           JUNCTION     0.43     1.78     8.39     0  01:34        1.68
  YS02001904           JUNCTION     0.41     1.69     8.32     0  01:34        1.64
  YS02001907           JUNCTION     0.73     1.96     8.25     0  01:34        1.96
  YS02001910           JUNCTION     0.53     1.98     8.49     0  01:35        1.97
  YS02001915           JUNCTION     0.35     1.95     8.67     0  01:37        1.93
  YS02001918           JUNCTION     0.20     1.81     8.88     0  01:34        1.81
  YS02001920           JUNCTION     0.28     2.14     9.15     0  01:35        1.86
  YS02001923           JUNCTION     0.16     2.03     9.29     0  01:35        1.60
  YS02001926           JUNCTION     0.19     1.90     9.35     0  01:35        1.41
  YS02001929           JUNCTION     0.11     1.78     9.47     0  01:35        1.16
  YS02006553           JUNCTION     0.74     2.03     8.31     0  01:35        2.03
  YS02006556           JUNCTION     0.71     2.08     8.39     0  01:35        2.08
  YS02006558           JUNCTION     0.75     2.15     8.42     0  01:35        2.15
  YS02006561           JUNCTION     0.17     1.09     7.75     0  01:35        1.09
  YS02163301           JUNCTION     0.53     1.94     8.46     0  01:35        1.92
  YS02163601           JUNCTION     0.63     2.08     8.48     0  01:35        2.03
  YS02164001           JUNCTION     0.56     1.99     8.45     0  01:35        1.94
  CC-1                 OUTFALL      0.00     0.00     0.00     0  00:00        0.00
  CC-2                 OUTFALL      0.00     0.00     0.00     0  00:00        0.00
  JK-1                 OUTFALL      0.00     0.00     0.00     0  00:00        0.00
  JK-2                 OUTFALL      0.00     0.00     0.00     0  00:00        0.00
  WSC                  OUTFALL      0.19     0.30     0.97     0  02:10        0.30
  CC-storage           STORAGE      1.02     1.80     7.30     0  02:19        1.80
  JK-storage           STORAGE      3.43     4.23     5.03     0  01:45        4.21
  
  
  *******************
  Node Inflow Summary
  *******************
  
  -------------------------------------------------------------------------------------------------
                                  Maximum  Maximum                  Lateral       Total        Flow
                                  Lateral    Total  Time of Max      Inflow      Inflow     Balance
                                   Inflow   Inflow   Occurrence      Volume      Volume       Error
  Node                 Type           LPS      LPS  days hr:min    10^6 ltr    10^6 ltr     Percent
  -------------------------------------------------------------------------------------------------
  WS02003060           JUNCTION     16.53   551.98     0  02:08       0.476        5.86       0.063
  WS02003066           JUNCTION      0.00   534.69     0  02:08           0        5.39       0.037
  WS02003067           JUNCTION      0.00   534.56     0  02:07           0        5.39       0.092
  WS02003069           JUNCTION      0.32   551.46     0  02:08     0.00922        5.87       0.108
  WS02003072           JUNCTION      0.00   550.60     0  02:09           0        5.86       0.172
  WS02003073           JUNCTION      1.82   552.21     0  02:09      0.0524         5.9       0.147
  WS02004401           JUNCTION      0.00   541.06     0  02:02           0        5.51       0.209
  WS02004402           JUNCTION      0.00   541.88     0  02:02           0         5.5       0.211
  WS02004403           JUNCTION      0.00   542.86     0  02:00           0        5.49       0.202
  WS02004404           JUNCTION      0.16   562.74     0  02:00     0.00467        5.48       0.168
  WS02004405           JUNCTION      0.04   605.10     0  01:59      0.0011        5.47       0.179
  WS02004406           JUNCTION      0.00   543.47     0  02:05           0        5.46       0.410
  WS02004407           JUNCTION      0.00   538.72     0  02:06           0        5.44       0.038
  WS02004409           JUNCTION      0.00   537.86     0  02:06           0        5.44       0.085
  WS02004410           JUNCTION      0.00   536.23     0  02:06           0        5.43       0.119
  WS02004411           JUNCTION      0.00   536.14     0  02:07           0        5.43       0.140
  WS02004412           JUNCTION      0.00   535.01     0  02:07           0        5.42       0.176
  WS02004413           JUNCTION      0.00   535.31     0  02:07           0        5.41       0.298
  WS02006109           JUNCTION      1.23   565.89     0  02:37      0.0354        5.56       0.197
  WS02006110           JUNCTION      0.00   565.82     0  02:37           0        5.55       0.146
  WS02006111           JUNCTION      0.00   561.43     0  03:08           0        5.54       0.020
  WS02006112           JUNCTION      0.00   545.77     0  02:46           0        5.54       0.334
  WS02006113           JUNCTION      0.00   570.66     0  02:17           0        5.54       0.042
  WS02006115           JUNCTION      0.00   551.97     0  02:45           0        5.52       0.146
  WS02006116           JUNCTION      0.00   540.60     0  02:05           0        5.51       0.066
  WS02006228           JUNCTION      0.00   563.70     0  02:37           0        5.53       0.098
  WS02006229           JUNCTION      0.00   563.27     0  02:37           0        5.54       0.093
  WS02006230           JUNCTION     10.28   594.05     0  03:05       0.296        5.54       0.071
  WS02006231           JUNCTION      0.00   576.85     0  02:16           0        5.24      -0.070
  WS02006232           JUNCTION      0.00   575.84     0  02:16           0        5.26       0.261
  WS02006234           JUNCTION      0.00   572.55     0  02:16           0        5.24      -0.240
  WS02006235           JUNCTION      0.00   566.60     0  02:16           0        5.32       0.226
  WS02006238           JUNCTION      0.00   425.76     0  02:40           0        4.24      -0.132
  WS02006239           JUNCTION      0.00   424.33     0  02:40           0         4.2      -0.027
  WS02006240           JUNCTION      0.00   421.04     0  02:40           0        4.16      -0.076
  WS02006242           JUNCTION      0.00   420.57     0  03:25           0        4.14      -0.013
  WS02006243           JUNCTION      0.00   420.55     0  02:40           0        4.13       0.029
  WS02006245           JUNCTION      0.00   420.28     0  02:40           0        4.14       0.276
  WS02006247           JUNCTION      0.00   420.65     0  02:40           0        4.14       0.021
  WS02006248           JUNCTION      0.00   422.08     0  02:40           0        4.14       0.071
  WS02006249           JUNCTION      0.00   459.02     0  00:00           0        4.43       0.296
  WS02006251           JUNCTION      0.08   406.13     0  02:59     0.00222        4.43      -0.032
  WS02006252           JUNCTION      0.00   400.00     0  00:00           0        4.43      -0.045
  WS02006256           JUNCTION      0.00   300.00     0  00:00           0        1.64      -1.025
  WSF200               JUNCTION      0.00   534.82     0  02:08           0        5.39       0.018
  YS02001580           JUNCTION      0.00   155.68     0  01:33           0     0.00469      -4.205
  YS02001583           JUNCTION      0.00   272.82     0  01:33           0      0.0151      -9.603
  YS02001586           JUNCTION    870.02   870.02     0  01:42        2.24        2.25       0.065
  YS02001590           JUNCTION      0.00   320.72     0  02:09           0        1.59      -0.032
  YS02001593           JUNCTION      0.00   320.09     0  02:09           0        1.59       0.010
  YS02001596           JUNCTION      0.00   318.06     0  01:44           0        1.59      -0.003
  YS02001600           JUNCTION      0.00   318.10     0  02:09           0        1.59       0.006
  YS02001601           JUNCTION   1599.51  1916.90     0  01:40        3.04        4.62       0.011
  YS02001602           JUNCTION      0.00   576.92     0  01:33           0        2.57       0.017
  YS02001605           JUNCTION      0.00   576.66     0  01:33           0         2.4       0.021
  YS02001607           JUNCTION      0.00   576.53     0  01:33           0         2.4       0.079
  YS02001610           JUNCTION      0.00   874.98     0  01:42           0        2.86       0.079
  YS02001613           JUNCTION      0.00   538.58     0  01:42           0        2.19       0.084
  YS02001616           JUNCTION      0.00   538.49     0  01:42           0        2.19       0.015
  YS02001619           JUNCTION   1546.12  1546.12     0  01:42        3.59        5.32       0.001
  YS02001622           JUNCTION      0.00  1011.99     0  01:41           0        4.86      -0.008
  YS02001625           JUNCTION      0.00  1427.23     0  01:43           0        5.19       0.174
  YS02001629           JUNCTION      0.00   943.06     0  01:33           0        3.81      -0.003
  YS02001633           JUNCTION   1198.15  1432.44     0  01:34        2.23        5.59       0.058
  YS02001641           JUNCTION      0.00  1428.02     0  01:34           0        5.16       0.054
  YS02001644           JUNCTION   1073.53  1941.34     0  01:34        1.93        7.09       0.035
  YS02001647           JUNCTION      0.00  1943.78     0  01:34           0        6.26       0.007
  YS02001649           JUNCTION      0.00  2210.81     0  01:35           0        8.04       0.004
  YS02001652           JUNCTION      0.00  1085.65     0  01:37           0        1.78      -0.101
  YS02001655           JUNCTION      0.15  1085.62     0  01:37     0.00443        1.78      -0.114
  YS02001658           JUNCTION      0.00  1085.17     0  01:37           0        1.79      -0.105
  YS02001661           JUNCTION      0.00  1084.86     0  01:37           0        1.79       0.038
  YS02001664           JUNCTION   1044.66  1044.66     0  01:39        1.78        1.78      -0.028
  YS02001745           JUNCTION    682.88   775.13     0  01:36        1.07        1.07       0.218
  YS02001748           JUNCTION      0.04   907.47     0  01:36      0.0013        1.07      -0.380
  YS02001751           JUNCTION      0.01   697.60     0  01:38    0.000317        1.08       0.041
  YS02001754           JUNCTION      0.26   697.87     0  01:38     0.00749        1.09      -0.200
  YS02001757           JUNCTION      0.00  3608.00     0  01:37           0        12.4       0.035
  YS02001759           JUNCTION    943.88  1547.13     0  01:36        1.47         3.3      -0.016
  YS02001762           JUNCTION      0.00   775.96     0  01:36           0        1.82      -0.005
  YS02001765           JUNCTION      0.00   778.34     0  01:36           0        1.82       0.003
  YS02001767           JUNCTION      0.54   779.08     0  01:36      0.0154        1.82      -0.015
  YS02001770           JUNCTION   1328.12  1328.12     0  01:39        2.24        2.29      -0.024
  YS02001774           JUNCTION      0.00   810.96     0  01:39           0       0.497       0.223
  YS02001779           JUNCTION      0.01   810.14     0  01:39    0.000144       0.449      -0.165
  YS02001783           JUNCTION      0.00  1171.19     0  01:36           0        4.78       0.005
  YS02001784           JUNCTION      1.06  1172.36     0  01:36      0.0305        4.81       0.011
  YS02001786           JUNCTION      0.06  1172.30     0  01:36     0.00162        4.81       0.013
  YS02001788           JUNCTION      0.07  1172.46     0  01:37     0.00204        4.81       0.006
  YS02001790           JUNCTION      0.15  1183.23     0  01:36     0.00446        4.82       0.023
  YS02001791           JUNCTION      0.00  1296.39     0  01:40           0        4.81      -0.028
  YS02001793           JUNCTION      0.00  1243.68     0  01:41           0        4.82       0.002
  YS02001882           JUNCTION      0.00   112.94     0  01:34           0       0.013       5.473
  YS02001884           JUNCTION      0.00   135.20     0  01:33           0       0.049       5.363
  YS02001887           JUNCTION   1038.75  1039.01     0  01:38        1.53        1.57       0.285
  YS02001890           JUNCTION      0.00  1038.84     0  01:38           0        1.52       0.319
  YS02001895           JUNCTION      0.00   592.62     0  01:34           0         1.3       0.122
  YS02001898           JUNCTION      0.00   597.08     0  01:34           0         1.3       0.008
  YS02001901           JUNCTION      0.00   601.85     0  01:34           0         1.3       0.263
  YS02001904           JUNCTION      0.00   603.18     0  01:34           0        1.31       0.216
  YS02001907           JUNCTION      0.00  2425.84     0  01:39           0        4.68       0.367
  YS02001910           JUNCTION      0.00  1728.11     0  01:40           0        3.33       0.219
  YS02001915           JUNCTION   1163.52  1728.17     0  01:40        2.13        3.39       0.041
  YS02001918           JUNCTION      0.00   707.81     0  01:34           0        1.29       0.006
  YS02001920           JUNCTION      2.87   693.97     0  01:34      0.0827        1.27       0.046
  YS02001923           JUNCTION      0.04   953.45     0  01:34     0.00109        1.17      -0.080
  YS02001926           JUNCTION      0.05  1210.85     0  01:35      0.0015        1.15      -0.084
  YS02001929           JUNCTION    558.92   900.57     0  01:35        1.12        1.13      -0.013
  YS02006553           JUNCTION      0.00   793.26     0  02:04           0        2.68       0.450
  YS02006556           JUNCTION      0.00   793.17     0  02:04           0        2.69       0.307
  YS02006558           JUNCTION   1364.01  1364.01     0  01:39        2.25        4.86       0.073
  YS02006561           JUNCTION      0.00  1174.02     0  01:34           0        4.78      -0.002
  YS02163301           JUNCTION      0.00   896.36     0  01:34           0        3.79       0.041
  YS02163601           JUNCTION      0.11  1432.23     0  01:34     0.00317        5.16       0.095
  YS02164001           JUNCTION      0.00  1431.02     0  01:34           0        5.16       0.046
  CC-1                 OUTFALL       0.00   683.00     0  00:00           0        4.41       0.000
  CC-2                 OUTFALL       0.00   683.00     0  00:00           0        3.61       0.000
  JK-1                 OUTFALL       0.00  1000.00     0  00:00           0        3.08       0.000
  JK-2                 OUTFALL       0.00  1000.00     0  00:00           0      0.0484       0.000
  WSC                  OUTFALL       0.00   551.80     0  02:10           0         5.9       0.000
  CC-storage           STORAGE       0.00  3608.20     0  01:37           0        14.6      -0.084
  JK-storage           STORAGE       0.00  1226.06     0  01:44           0        4.97       0.135
  
  
  **********************
  Node Surcharge Summary
  **********************
  
  Surcharging occurs when water rises above the top of the highest conduit.
  ---------------------------------------------------------------------
                                               Max. Height   Min. Depth
                                   Hours       Above Crown    Below Rim
  Node                 Type      Surcharged         Meters       Meters
  ---------------------------------------------------------------------
  WS02004404           JUNCTION        0.01          0.017        2.763
  WS02006109           JUNCTION        2.44          0.448        1.372
  WS02006110           JUNCTION        0.86          0.472        1.378
  WS02006112           JUNCTION        1.28          0.095        1.585
  WS02006228           JUNCTION        2.44          0.559        1.641
  WS02006229           JUNCTION        2.45          0.665        1.785
  WS02006230           JUNCTION        0.86          0.675        0.895
  WS02006231           JUNCTION        1.13          0.699        0.831
  WS02006232           JUNCTION        2.47          0.782        0.698
  WS02006234           JUNCTION        1.63          0.964        0.276
  WS02006235           JUNCTION        2.38          0.986        0.304
  WS02006238           JUNCTION        2.45          1.027        0.403
  WS02006239           JUNCTION        2.40          0.987        0.303
  WS02006240           JUNCTION        2.40          0.944        0.446
  WS02006242           JUNCTION        2.42          0.820        0.000
  WS02006243           JUNCTION        2.39          0.770        0.000
  WS02006245           JUNCTION        2.39          0.749        0.101
  WS02006247           JUNCTION        2.39          0.658        0.102
  WS02006248           JUNCTION        2.38          0.380        0.000
  WS02006249           JUNCTION        2.38          0.390        0.000
  WS02006251           JUNCTION        1.26          0.352        0.828
  WS02006252           JUNCTION        2.54          1.100        0.000
  WS02006256           JUNCTION        6.16          2.050        0.000
  YS02001580           JUNCTION        0.83          0.450        0.000
  YS02001583           JUNCTION        0.84          0.500        0.000
  YS02001586           JUNCTION        1.02          0.510        0.000
  YS02001590           JUNCTION        1.10          0.750        0.000
  YS02001593           JUNCTION        1.11          0.755        0.085
  YS02001596           JUNCTION        1.23          0.984        0.086
  YS02001600           JUNCTION        1.41          1.190        0.000
  YS02001601           JUNCTION        1.70          1.440        0.000
  YS02001602           JUNCTION        1.63          1.270        0.000
  YS02001605           JUNCTION        1.59          1.180        0.000
  YS02001607           JUNCTION        1.11          0.680        0.000
  YS02001610           JUNCTION        1.14          0.680        0.000
  YS02001613           JUNCTION        1.11          0.669        0.031
  YS02001616           JUNCTION        1.07          0.610        0.000
  YS02001619           JUNCTION        1.05          0.610        0.000
  YS02001622           JUNCTION        1.05          0.620        0.000
  YS02001625           JUNCTION        1.25          0.780        0.000
  YS02001629           JUNCTION        0.99          0.470        0.000
  YS02001633           JUNCTION        1.29          1.040        0.020
  YS02001641           JUNCTION        1.25          0.972        0.128
  YS02001644           JUNCTION        1.23          0.920        0.000
  YS02001647           JUNCTION        1.01          0.836        0.064
  YS02001649           JUNCTION        1.17          1.050        0.000
  YS02001652           JUNCTION        0.95          1.130        0.000
  YS02001655           JUNCTION        0.68          1.200        0.000
  YS02001658           JUNCTION        0.35          1.300        0.000
  YS02001661           JUNCTION        0.11          1.390        0.000
  YS02001664           JUNCTION        0.01          1.310        0.000
  YS02001745           JUNCTION        0.01          1.350        0.000
  YS02001748           JUNCTION        0.26          1.190        0.000
  YS02001751           JUNCTION        0.50          1.200        0.000
  YS02001754           JUNCTION        0.82          1.150        0.000
  YS02001757           JUNCTION        1.26          1.210        0.000
  YS02001759           JUNCTION        1.15          1.210        0.000
  YS02001762           JUNCTION        1.11          1.150        0.000
  YS02001765           JUNCTION        1.06          1.100        0.000
  YS02001767           JUNCTION        1.01          1.030        0.000
  YS02001770           JUNCTION        0.97          0.920        0.000
  YS02001774           JUNCTION        1.09          1.050        0.000
  YS02001779           JUNCTION        0.79          0.680        0.000
  YS02001783           JUNCTION        0.70          0.600        1.000
  YS02001784           JUNCTION        0.67          0.452        1.038
  YS02001786           JUNCTION        0.56          0.185        1.245
  YS02001882           JUNCTION        0.63          0.760        0.070
  YS02001884           JUNCTION        0.65          0.775        0.095
  YS02001887           JUNCTION        0.69          0.829        0.121
  YS02001890           JUNCTION        0.70          0.760        0.000
  YS02001895           JUNCTION        0.62          0.654        0.096
  YS02001898           JUNCTION        0.62          0.670        0.070
  YS02001901           JUNCTION        0.67          0.780        0.090
  YS02001904           JUNCTION        0.66          0.688        0.162
  YS02001907           JUNCTION        0.91          0.950        0.000
  YS02001910           JUNCTION        0.73          0.983        0.117
  YS02001915           JUNCTION        0.63          0.953        0.047
  YS02001918           JUNCTION        0.54          0.810        0.000
  YS02001920           JUNCTION        0.56          1.140        0.000
  YS02001923           JUNCTION        0.20          0.820        0.000
  YS02001926           JUNCTION        0.23          0.900        0.000
  YS02001929           JUNCTION        0.03          0.780        0.000
  YS02006553           JUNCTION        0.94          1.029        0.161
  YS02006556           JUNCTION        0.82          1.038        0.312
  YS02006558           JUNCTION        0.81          1.049        0.351
  YS02006561           JUNCTION        0.50          0.286        0.864
  YS02163301           JUNCTION        1.27          0.938        0.092
  YS02163601           JUNCTION        1.33          1.077        0.003
  YS02164001           JUNCTION        1.25          0.991        0.109
  
  
  *********************
  Node Flooding Summary
  *********************
  
  Flooding refers to all water that overflows a node, whether it ponds or not.
  --------------------------------------------------------------------------
                                                             Total   Maximum
                                 Maximum   Time of Max       Flood    Ponded
                        Hours       Rate    Occurrence      Volume     Depth
  Node                 Flooded       LPS   days hr:min    10^6 ltr    Meters
  --------------------------------------------------------------------------
  WS02006242              0.01     10.70      0  02:33       0.000     0.000
  WS02006243              0.01      0.30      0  03:02       0.000     0.000
  WS02006248              0.02     24.78      0  02:05       0.001     0.000
  WS02006249              1.20     94.96      0  01:43       0.281     0.000
  WS02006252              0.01    245.63      0  00:00       0.000     0.000
  WS02006256              1.52    293.19      0  00:00       0.535     0.000
  YS02001580              0.01     99.77      0  01:33       0.001     0.000
  YS02001583              0.01    153.59      0  01:33       0.000     0.000
  YS02001586              0.68    552.47      0  01:42       0.649     0.000
  YS02001590              0.01      2.46      0  01:33       0.000     0.000
  YS02001600              0.01      7.04      0  01:33       0.000     0.000
  YS02001601              0.93   1519.10      0  01:40       2.048     0.000
  YS02001602              0.84     63.09      0  02:09       0.171     0.000
  YS02001605              0.01      4.00      0  01:33       0.000     0.000
  YS02001607              0.01      0.56      0  02:09       0.000     0.000
  YS02001610              0.74    874.89      0  01:42       1.121     0.000
  YS02001616              0.01     64.88      0  01:33       0.000     0.000
  YS02001619              0.01     72.25      0  01:33       0.000     0.000
  YS02001622              0.01    148.09      0  01:33       0.000     0.000
  YS02001625              0.72   1427.21      0  01:43       1.796     0.000
  YS02001629              0.18    423.54      0  01:38       0.128     0.000
  YS02001644              0.29   1434.07      0  01:39       0.819     0.000
  YS02001649              0.01    212.69      0  01:36       0.004     0.000
  YS02001652              0.01     41.13      0  01:36       0.000     0.000
  YS02001655              0.01    498.99      0  01:35       0.001     0.000
  YS02001658              0.01    398.59      0  01:36       0.001     0.000
  YS02001661              0.01    351.04      0  01:36       0.000     0.000
  YS02001664              0.01    222.51      0  01:36       0.000     0.000
  YS02001745              0.01    378.99      0  01:36       0.000     0.000
  YS02001748              0.01    523.04      0  01:36       0.002     0.000
  YS02001751              0.01    269.13      0  01:36       0.001     0.000
  YS02001754              0.01    306.42      0  01:35       0.001     0.000
  YS02001757              0.01     43.09      0  01:36       0.000     0.000
  YS02001759              0.01      3.89      0  01:36       0.000     0.000
  YS02001762              0.01     10.60      0  01:36       0.000     0.000
  YS02001765              0.01      6.65      0  01:36       0.000     0.000
  YS02001767              0.01    316.08      0  01:35       0.000     0.000
  YS02001770              0.03    412.11      0  01:35       0.005     0.000
  YS02001774              0.01     85.58      0  01:35       0.000     0.000
  YS02001779              0.26    810.02      0  01:39       0.428     0.000
  YS02001890              0.22    519.12      0  01:38       0.217     0.000
  YS02001907              0.48   2425.82      0  01:39       2.039     0.000
  YS02001918              0.01    266.45      0  01:35       0.004     0.000
  YS02001920              0.01     34.14      0  01:35       0.000     0.000
  YS02001923              0.01    383.85      0  01:35       0.002     0.000
  YS02001926              0.01    844.36      0  01:35       0.004     0.000
  YS02001929              0.01    731.20      0  01:35       0.002     0.000
  
  
  **********************
  Storage Volume Summary
  **********************
  
  ------------------------------------------------------------------------------------------------
                         Average    Avg   Evap  Exfil     Maximum    Max    Time of Max    Maximum
                          Volume   Pcnt   Pcnt   Pcnt      Volume   Pcnt     Occurrence    Outflow
  Storage Unit           1000 m³   Full   Loss   Loss     1000 m³   Full    days hr:min        LPS
  ------------------------------------------------------------------------------------------------
  CC-storage               2.855   44.5    0.0    0.0       5.012   78.2       0  02:19    1783.53
  JK-storage               0.172   59.2    0.0    0.0       0.213   73.0       0  01:45    2300.00
  
  
  ***********************
  Outfall Loading Summary
  ***********************
  
  -----------------------------------------------------------
                         Flow       Avg       Max       Total
                         Freq      Flow      Flow      Volume
  Outfall Node           Pcnt       LPS       LPS    10^6 ltr
  -----------------------------------------------------------
  CC-1                  25.49    683.00    683.00       4.412
  CC-2                  21.24    683.00    683.00       3.614
  JK-1                  13.81   1000.00   1000.00       3.081
  JK-2                   0.15   1000.00   1000.00       0.048
  WSC                   99.96    273.23    551.80       5.895
  -----------------------------------------------------------
  System                32.13   3639.23   3366.23      17.051
  
  
  ********************
  Link Flow Summary
  ********************
  
  -----------------------------------------------------------------------------
                                 Maximum  Time of Max   Maximum    Max/    Max/
                                  |Flow|   Occurrence   |Veloc|    Full    Full
  Link                 Type          LPS  days hr:min     m/sec    Flow   Depth
  -----------------------------------------------------------------------------
  1                    CONDUIT    551.80     0  02:10      2.82    0.19    0.30
  WS02003060WS02003069 CONDUIT    551.14     0  02:08      1.64    0.22    0.34
  WS02003066WSF200     CONDUIT    534.82     0  02:08      2.85    0.09    0.22
  WS02003067WS02003066 CONDUIT    534.69     0  02:08      1.20    0.17    0.42
  WS02003069WS02003072 CONDUIT    550.60     0  02:09      1.37    0.27    0.39
  WS02003072WS02003073 CONDUIT    550.39     0  02:09      1.43    1.19    0.37
  WS02004401WS02004402 CONDUIT    541.88     0  02:02      0.98    0.65    0.89
  WS02004402WS02004403 CONDUIT    542.86     0  02:00      0.97    0.78    0.91
  WS02004403WS02004404 CONDUIT    562.58     0  02:00      0.92    0.41    0.96
  WS02004404WS02004405 CONDUIT    605.06     0  01:59      1.08    5.93    0.98
  WS02004405WS02004406 CONDUIT    543.47     0  02:05      0.99    1.07    0.96
  WS02004406WS02004407 CONDUIT    538.72     0  02:06      1.04    0.24    0.63
  WS02004407WS02004409 CONDUIT    537.86     0  02:06      1.59    0.19    0.48
  WS02004409WS02004410 CONDUIT    536.23     0  02:06      1.05    0.69    0.67
  WS02004410WS02004411 CONDUIT    536.14     0  02:07      0.99    0.73    0.68
  WS02004411WS02004412 CONDUIT    535.01     0  02:07      0.95    0.76    0.69
  WS02004412WS02004413 CONDUIT    535.31     0  02:07      0.82    0.36    0.78
  WS02004413WS02003067 CONDUIT    534.56     0  02:07      1.11    0.23    0.59
  WS02006109WS02006110 CONDUIT    565.82     0  02:37      1.13    1.09    1.00
  WS02006110WS02006113 CONDUIT    570.66     0  02:17      1.38    0.52    0.79
  WS02006111WS02006112 CONDUIT    545.77     0  02:46      1.81    0.26    0.67
  WS02006112WS02006115 CONDUIT    551.97     0  02:45      0.87    0.33    0.88
  WS02006113WS02006111 CONDUIT    561.43     0  03:08      2.47    0.67    0.46
  WS02006115WS02006116 CONDUIT    540.60     0  02:05      1.12    0.69    0.78
  WS02006116WS02004401 CONDUIT    541.06     0  02:02      0.98    0.75    0.86
  WS02006228WS02006109 CONDUIT    564.66     0  02:37      1.12    2.47    1.00
  WS02006229WS02006228 CONDUIT    563.70     0  02:37      1.14    1.87    1.00
  WS02006230WS02006229 CONDUIT    563.27     0  02:37      1.46   12.54    1.00
  WS02006231WS02006230 CONDUIT    583.77     0  03:05      1.59    8.85    1.00
  WS02006232WS02006231 CONDUIT    576.85     0  02:16      1.50    1.21    1.00
  WS02006234WS02006232 CONDUIT    575.84     0  02:16      1.50    1.16    1.00
  WS02006235WS02006234 CONDUIT    572.55     0  02:16      1.49    6.04    1.00
  WS02006238WS02006235 CONDUIT    425.85     0  02:40      1.54    0.95    1.00
  WS02006239WS02006238 CONDUIT    425.76     0  02:40      1.11    1.36    1.00
  WS02006240WS02006239 CONDUIT    424.33     0  02:40      1.24    1.34    1.00
  WS02006242WS02006240 CONDUIT    421.04     0  02:40      1.13    1.67    1.00
  WS02006243WS02006242 CONDUIT    420.57     0  03:25      1.40    0.90    1.00
  WS02006245WS02006243 CONDUIT    420.55     0  02:40      1.45    1.24    1.00
  WS02006247WS02006245 CONDUIT    420.28     0  02:40      1.43    3.33    1.00
  WS02006248WS02006247 CONDUIT    420.65     0  02:40      1.44    0.92    1.00
  WS02006249WS02006248 CONDUIT    422.08     0  02:40      1.36    2.31    1.00
  WS02006251WS02006249 CONDUIT    459.02     0  00:00      1.99    1.32    1.00
  WS02006252WS02006251 CONDUIT    406.06     0  02:59     24.61    1.49    1.00
  WS02006256WS02006235 CONDUIT    289.14     0  07:34      4.23    3.06    1.00
  WSF200WS02003060     CONDUIT    535.45     0  02:08      2.06    0.12    0.28
  YS02001580YS02001583 CONDUIT    155.68     0  01:33      0.87    0.60    1.00
  YS02001583YS02001586 CONDUIT    201.12     0  01:33      0.88    0.30    1.00
  YS02001586YS02001590 CONDUIT    320.72     0  02:09      1.28    0.56    1.00
  YS02001590YS02001593 CONDUIT    320.09     0  02:09      1.13    2.01    1.00
  YS02001593YS02001596 CONDUIT    318.06     0  01:44      1.73    0.50    1.00
  YS02001596YS02001600 CONDUIT    318.10     0  02:09      1.23    0.62    1.00
  YS02001600YS02001601 CONDUIT    318.48     0  02:09      1.13    0.55    1.00
  YS02001601YS02001602 CONDUIT    576.92     0  01:33      2.04    2.08    1.00
  YS02001602YS02001605 CONDUIT    576.66     0  01:33      2.04   12.20    1.00
  YS02001605YS02001607 CONDUIT    576.53     0  01:33      2.04    3.16    1.00
  YS02001607YS02001610 CONDUIT    542.61     0  01:33      0.71    0.52    1.00
  YS02001610YS02001613 CONDUIT    538.53     0  01:42      0.69    0.62    1.00
  YS02001613YS02001616 CONDUIT    538.58     0  01:42      0.69    0.46    1.00
  YS02001616YS02001619 CONDUIT    538.49     0  01:42      0.69    0.93    1.00
  YS02001619YS02001622 CONDUIT   1011.99     0  01:41      1.29    1.49    1.00
  YS02001622YS02001625 CONDUIT   1012.00     0  01:41      1.29    0.54    1.00
  YS02001625YS02001629 CONDUIT    943.06     0  01:33      1.20    0.45    1.00
  YS02001629YS02163301 CONDUIT    896.36     0  01:34      1.14    1.10    1.00
  YS02001633YS02163601 CONDUIT   1432.12     0  01:34      1.82    1.50    1.00
  YS02001641YS02001644 CONDUIT   1426.74     0  01:34      1.82    4.61    1.00
  YS02001644YS02001647 CONDUIT   1943.78     0  01:34      2.47    1.14    1.00
  YS02001647YS02001649 CONDUIT   1945.54     0  01:34      2.48    1.03    1.00
  YS02001649YS02001757 CONDUIT   2210.68     0  01:35      2.81    1.34    1.00
  YS02001652YS02001649 CONDUIT   1085.91     0  01:37      1.38    0.54    1.00
  YS02001655YS02001652 CONDUIT   1085.65     0  01:37      1.55    0.53    1.00
  YS02001658YS02001655 CONDUIT   1085.46     0  01:37      2.05    0.46    1.00
  YS02001661YS02001658 CONDUIT   1085.17     0  01:37      2.46    0.43    1.00
  YS02001664YS02001661 CONDUIT   1084.86     0  01:37      2.56    0.34    1.00
  YS02001745YS02001748 CONDUIT    697.68     0  01:38      2.43    0.27    1.00
  YS02001748YS02001751 CONDUIT    697.58     0  01:38      1.90    0.35    1.00
  YS02001751YS02001754 CONDUIT    697.61     0  01:38      1.59    0.34    1.00
  YS02001754YS02001757 CONDUIT    697.72     0  01:38      0.89    0.28    1.00
  YS02001757CaochengTiaoxuchi CONDUIT   3608.20     0  01:37      4.66    1.56    1.00
  YS02001759YS02001757 CONDUIT   1546.46     0  01:36      1.97    1.10    1.00
  YS02001762YS02001759 CONDUIT    775.17     0  01:36      0.99    0.89    1.00
  YS02001765YS02001762 CONDUIT    775.96     0  01:36      0.99    0.73    1.00
  YS02001767YS02001765 CONDUIT    778.34     0  01:36      0.99    0.98    1.00
  YS02001770YS02001767 CONDUIT    778.55     0  01:36      0.99    3.08    1.00
  YS02001774YS02001770 CONDUIT    810.96     0  01:39      1.03    0.52    1.00
  YS02001779YS02001774 CONDUIT    810.13     0  01:39      1.03    0.41    1.00
  YS02001783YS02001784 CONDUIT   1171.30     0  01:36      2.33    1.61    1.00
  YS02001784YS02001785 CONDUIT   1172.25     0  01:36      2.33    2.73    1.00
  YS02001786YS02001788 CONDUIT   1172.39     0  01:37      2.50    2.26    0.89
  YS02001788YS02001790 CONDUIT   1183.07     0  01:36      2.76    0.87    0.84
  YS02001790YS02001791 CONDUIT   1296.39     0  01:40      3.44    1.41    0.70
  YS02001791YS02001793 CONDUIT   1243.68     0  01:41      6.51    0.53    0.45
  YS02001793JiankangQianchi CONDUIT   1226.06     0  01:44      2.38    0.10    0.65
  YS02001882YS02001884 CONDUIT    112.94     0  01:34      0.17    0.13    1.00
  YS02001884YS02001887 CONDUIT    135.20     0  01:33      0.17    0.18    1.00
  YS02001887YS02001890 CONDUIT   1038.84     0  01:38      1.32    1.78    1.00
  YS02001890YS02001895 CONDUIT    592.62     0  01:34      0.75    0.28    1.00
  YS02001895YS02001898 CONDUIT    597.08     0  01:34      0.76    1.04    1.00
  YS02001898YS02001901 CONDUIT    601.85     0  01:34      0.77    0.39    1.00
  YS02001901YS02001904 CONDUIT    603.18     0  01:34      0.77    0.94    1.00
  YS02001904YS02001907 CONDUIT    601.84     0  01:34      0.77    0.21    1.00
  YS02001907YS02006553 CONDUIT    793.26     0  02:04      0.88    0.93    1.00
  YS02001910YS02001907 CONDUIT   1728.36     0  01:40      2.20    0.97    1.00
  YS02001915YS02001910 CONDUIT   1728.11     0  01:40      2.20    0.86    1.00
  YS02001918YS02001915 CONDUIT    707.81     0  01:34      0.91    0.39    1.00
  YS02001920YS02001918 CONDUIT    691.10     0  01:34      0.88    0.67    1.00
  YS02001923YS02001920 CONDUIT    710.44     0  01:34      0.98    0.32    1.00
  YS02001926YS02001923 CONDUIT    946.98     0  01:35      1.40    1.35    1.00
  YS02001929YS02001926 CONDUIT    598.89     0  01:35      1.23    0.28    1.00
  YS02006553YS02006556 CONDUIT    793.17     0  02:04      1.01    0.68    1.00
  YS02006556YS02006558 CONDUIT    794.81     0  02:04      1.01    0.63    1.00
  YS02006558YS02006561 CONDUIT   1174.02     0  01:34      4.15    2.59    1.00
  YS02006561YS02001783 CONDUIT   1171.19     0  01:36      2.33    0.61    1.00
  YS02163301YS02001633 CONDUIT    895.57     0  01:34      1.14    0.84    1.00
  YS02163601YS02164001 CONDUIT   1431.02     0  01:34      1.82    1.27    1.00
  YS02164001YS02001641 CONDUIT   1428.02     0  01:34      1.82    1.95    1.00
  CC-R1                PUMP       683.00     0  00:00              1.00
  CC-R2                PUMP       683.00     0  00:00              1.00
  CC-S1                PUMP       200.00     0  00:00              1.00
  CC-S2                PUMP       200.00     0  00:00              1.00
  JK-R1                PUMP      1000.00     0  00:00              1.00
  JK-R2                PUMP      1000.00     0  00:00              1.00
  JK-S                 PUMP       300.00     0  00:00              1.00
  
  
  ***************************
  Flow Classification Summary
  ***************************
  
  -------------------------------------------------------------------------------------
                      Adjusted    ---------- Fraction of Time in Flow Class ---------- 
                       /Actual         Up    Down  Sub   Sup   Up    Down  Norm  Inlet 
  Conduit               Length    Dry  Dry   Dry   Crit  Crit  Crit  Crit  Ltd   Ctrl  
  -------------------------------------------------------------------------------------
  1                       1.00   0.00  0.00  0.00  0.00  1.00  0.00  0.00  0.40  0.00
  WS02003060WS02003069    1.00   0.00  0.00  0.00  0.99  0.01  0.00  0.00  0.66  0.00
  WS02003066WSF200        1.00   0.13  0.00  0.00  0.00  0.87  0.00  0.00  0.75  0.00
  WS02003067WS02003066    1.00   0.10  0.02  0.00  0.88  0.00  0.00  0.00  0.00  0.00
  WS02003069WS02003072    1.00   0.00  0.00  0.00  0.99  0.01  0.00  0.00  0.68  0.00
  WS02003072WS02003073    1.00   0.00  0.00  0.00  0.00  0.00  0.00  1.00  0.00  0.00
  WS02004401WS02004402    1.00   0.02  0.00  0.00  0.98  0.00  0.00  0.00  0.00  0.00
  WS02004402WS02004403    1.00   0.02  0.00  0.00  0.97  0.00  0.00  0.00  0.00  0.00
  WS02004403WS02004404    1.00   0.00  0.03  0.00  0.97  0.00  0.00  0.00  0.00  0.00
  WS02004404WS02004405    1.00   0.00  0.00  0.00  1.00  0.00  0.00  0.00  0.01  0.00
  WS02004405WS02004406    1.00   0.00  0.00  0.00  1.00  0.00  0.00  0.00  0.00  0.00
  WS02004406WS02004407    1.00   0.00  0.05  0.00  0.95  0.00  0.00  0.00  0.00  0.00
  WS02004407WS02004409    1.00   0.05  0.00  0.00  0.94  0.01  0.00  0.00  0.94  0.00
  WS02004409WS02004410    1.00   0.05  0.00  0.00  0.95  0.00  0.00  0.00  0.03  0.00
  WS02004410WS02004411    1.00   0.05  0.00  0.00  0.95  0.00  0.00  0.00  0.01  0.00
  WS02004411WS02004412    1.00   0.05  0.00  0.00  0.95  0.00  0.00  0.00  0.00  0.00
  WS02004412WS02004413    1.00   0.05  0.00  0.00  0.94  0.00  0.00  0.00  0.01  0.00
  WS02004413WS02003067    1.00   0.06  0.04  0.00  0.00  0.00  0.90  0.00  0.00  0.00
  WS02006109WS02006110    1.00   0.00  0.01  0.00  0.98  0.00  0.01  0.00  0.00  0.00
  WS02006110WS02006113    1.00   0.01  0.01  0.00  0.98  0.00  0.00  0.00  0.00  0.00
  WS02006111WS02006112    1.00   0.02  0.00  0.00  0.98  0.00  0.00  0.00  0.98  0.00
  WS02006112WS02006115    1.00   0.02  0.00  0.00  0.97  0.00  0.00  0.00  0.00  0.00
  WS02006113WS02006111    1.00   0.02  0.00  0.00  0.00  0.98  0.00  0.00  0.13  0.00
  WS02006115WS02006116    1.00   0.02  0.00  0.00  0.97  0.00  0.00  0.01  0.00  0.00
  WS02006116WS02004401    1.00   0.02  0.00  0.00  0.98  0.00  0.00  0.00  0.00  0.00
  WS02006228WS02006109    1.00   0.00  0.00  0.00  1.00  0.00  0.00  0.00  0.00  0.00
  WS02006229WS02006228    1.00   0.00  0.00  0.00  0.99  0.00  0.00  0.01  0.00  0.00
  WS02006230WS02006229    1.00   0.00  0.00  0.00  0.99  0.00  0.00  0.01  0.01  0.00
  WS02006231WS02006230    1.00   0.00  0.00  0.00  0.32  0.00  0.68  0.00  0.00  0.00
  WS02006232WS02006231    1.00   0.00  0.00  0.00  0.98  0.00  0.01  0.00  0.00  0.00
  WS02006234WS02006232    1.00   0.00  0.00  0.00  1.00  0.00  0.00  0.00  0.10  0.00
  WS02006235WS02006234    1.00   0.00  0.00  0.00  0.85  0.00  0.15  0.00  0.00  0.00
  WS02006238WS02006235    1.00   0.00  0.00  0.00  1.00  0.00  0.00  0.00  0.00  0.00
  WS02006239WS02006238    1.00   0.00  0.00  0.00  1.00  0.00  0.00  0.00  0.23  0.00
  WS02006240WS02006239    1.00   0.00  0.00  0.00  0.66  0.00  0.00  0.34  0.02  0.00
  WS02006242WS02006240    1.00   0.00  0.00  0.00  0.99  0.00  0.01  0.00  0.00  0.00
  WS02006243WS02006242    1.00   0.00  0.00  0.00  0.98  0.00  0.00  0.01  0.51  0.00
  WS02006245WS02006243    1.00   0.00  0.00  0.00  0.74  0.00  0.00  0.25  0.01  0.00
  WS02006247WS02006245    1.00   0.00  0.00  0.00  0.98  0.00  0.00  0.02  0.00  0.00
  WS02006248WS02006247    1.00   0.00  0.00  0.00  0.99  0.00  0.00  0.01  0.30  0.00
  WS02006249WS02006248    1.00   0.00  0.00  0.00  0.49  0.00  0.51  0.00  0.00  0.00
  WS02006251WS02006249    1.00   0.00  0.00  0.00  0.99  0.01  0.00  0.00  0.52  0.00
  WS02006252WS02006251    1.00   0.00  0.55  0.00  0.16  0.00  0.30  0.00  0.00  0.00
  WS02006256WS02006235    1.00   0.00  0.00  0.00  0.99  0.01  0.00  0.00  0.00  0.00
  WSF200WS02003060        1.00   0.00  0.13  0.00  0.36  0.51  0.00  0.00  0.47  0.00
  YS02001580YS02001583    1.00   0.19  0.58  0.00  0.23  0.00  0.00  0.00  0.67  0.00
  YS02001583YS02001586    1.00   0.41  0.30  0.00  0.29  0.00  0.00  0.00  0.67  0.00
  YS02001586YS02001590    1.00   0.13  0.00  0.00  0.44  0.04  0.00  0.40  0.33  0.00
  YS02001590YS02001593    1.00   0.13  0.01  0.00  0.15  0.00  0.71  0.00  0.00  0.00
  YS02001593YS02001596    1.00   0.13  0.00  0.00  0.18  0.01  0.00  0.68  0.02  0.00
  YS02001596YS02001600    1.00   0.13  0.00  0.00  0.23  0.01  0.00  0.63  0.03  0.00
  YS02001600YS02001601    1.00   0.13  0.01  0.00  0.86  0.00  0.00  0.00  0.59  0.00
  YS02001601YS02001602    1.00   0.13  0.01  0.00  0.87  0.00  0.00  0.00  0.00  0.00
  YS02001602YS02001605    1.00   0.13  0.00  0.00  0.87  0.00  0.00  0.00  0.00  0.00
  YS02001605YS02001607    1.00   0.13  0.00  0.00  0.87  0.00  0.00  0.00  0.00  0.00
  YS02001607YS02001610    1.00   0.13  0.01  0.00  0.86  0.00  0.00  0.00  0.01  0.00
  YS02001610YS02001613    1.00   0.13  0.00  0.00  0.87  0.00  0.00  0.00  0.00  0.00
  YS02001613YS02001616    1.00   0.13  0.00  0.00  0.87  0.00  0.00  0.00  0.00  0.00
  YS02001616YS02001619    1.00   0.13  0.00  0.00  0.87  0.00  0.00  0.00  0.00  0.00
  YS02001619YS02001622    1.00   0.13  0.00  0.00  0.87  0.00  0.00  0.00  0.28  0.00
  YS02001622YS02001625    1.00   0.13  0.00  0.00  0.87  0.00  0.00  0.00  0.03  0.00
  YS02001625YS02001629    1.00   0.13  0.04  0.00  0.20  0.00  0.63  0.00  0.00  0.00
  YS02001629YS02163301    1.00   0.15  0.01  0.00  0.85  0.00  0.00  0.00  0.00  0.00
  YS02001633YS02163601    1.00   0.00  0.01  0.00  0.99  0.00  0.00  0.00  0.14  0.00
  YS02001641YS02001644    1.00   0.00  0.01  0.00  0.99  0.00  0.00  0.00  0.00  0.00
  YS02001644YS02001647    1.00   0.00  0.16  0.00  0.84  0.00  0.00  0.00  0.00  0.00
  YS02001647YS02001649    1.00   0.00  0.16  0.00  0.63  0.21  0.00  0.00  0.55  0.00
  YS02001649YS02001757    1.00   0.00  0.00  0.00  0.90  0.10  0.00  0.00  0.41  0.00
  YS02001652YS02001649    1.00   0.00  0.00  0.00  0.97  0.03  0.00  0.00  0.70  0.00
  YS02001655YS02001652    1.00   0.00  0.00  0.00  0.23  0.01  0.00  0.76  0.04  0.00
  YS02001658YS02001655    1.00   0.00  0.14  0.00  0.71  0.15  0.00  0.00  0.65  0.00
  YS02001661YS02001658    1.00   0.14  0.00  0.00  0.55  0.31  0.00  0.00  0.69  0.00
  YS02001664YS02001661    1.00   0.13  0.00  0.00  0.77  0.10  0.00  0.00  0.84  0.00
  YS02001745YS02001748    1.00   0.00  0.00  0.00  0.15  0.01  0.00  0.84  0.06  0.00
  YS02001748YS02001751    1.00   0.00  0.00  0.00  0.87  0.13  0.00  0.00  0.76  0.00
  YS02001751YS02001754    1.00   0.00  0.00  0.00  0.22  0.00  0.00  0.78  0.03  0.00
  YS02001754YS02001757    1.00   0.00  0.00  0.00  1.00  0.00  0.00  0.00  0.74  0.00
  YS02001757CaochengTiaoxuchi    1.00   0.00  0.00  0.00  0.98  0.02  0.00  0.00  0.51  0.00
  YS02001759YS02001757    1.00   0.00  0.00  0.00  0.99  0.01  0.00  0.00  0.51  0.00
  YS02001762YS02001759    1.00   0.00  0.00  0.00  1.00  0.00  0.00  0.00  0.04  0.00
  YS02001765YS02001762    1.00   0.00  0.00  0.00  1.00  0.00  0.00  0.00  0.63  0.00
  YS02001767YS02001765    1.00   0.00  0.00  0.00  1.00  0.00  0.00  0.00  0.01  0.00
  YS02001770YS02001767    1.00   0.00  0.00  0.00  1.00  0.00  0.00  0.00  0.00  0.00
  YS02001774YS02001770    1.00   0.00  0.13  0.00  0.70  0.00  0.16  0.00  0.02  0.00
  YS02001779YS02001774    1.00   0.00  0.00  0.00  1.00  0.00  0.00  0.00  0.74  0.00
  YS02001783YS02001784    1.00   0.00  0.17  0.00  0.83  0.00  0.00  0.00  0.55  0.00
  YS02001784YS02001785    1.00   0.00  0.00  0.00  1.00  0.00  0.00  0.00  0.15  0.00
  YS02001786YS02001788    1.00   0.00  0.00  0.00  0.79  0.21  0.00  0.00  0.00  0.00
  YS02001788YS02001790    1.00   0.00  0.00  0.00  0.21  0.79  0.00  0.00  0.79  0.00
  YS02001790YS02001791    1.00   0.00  0.00  0.00  0.01  0.99  0.00  0.00  0.17  0.00
  YS02001791YS02001793    1.00   0.00  0.00  0.00  0.00  1.00  0.00  0.00  0.01  0.00
  YS02001793JiankangQianchi    1.00   0.00  0.00  0.00  0.99  0.01  0.00  0.00  0.92  0.00
  YS02001882YS02001884    1.00   0.15  0.01  0.00  0.85  0.00  0.00  0.00  0.00  0.00
  YS02001884YS02001887    1.00   0.06  0.05  0.00  0.89  0.00  0.00  0.00  0.00  0.00
  YS02001887YS02001890    1.00   0.00  0.00  0.00  0.97  0.00  0.03  0.00  0.00  0.00
  YS02001890YS02001895    1.00   0.00  0.15  0.00  0.85  0.00  0.00  0.00  0.00  0.00
  YS02001895YS02001898    1.00   0.15  0.00  0.00  0.83  0.00  0.01  0.00  0.00  0.00
  YS02001898YS02001901    1.00   0.16  0.00  0.00  0.84  0.00  0.00  0.00  0.01  0.00
  YS02001901YS02001904    1.00   0.16  0.00  0.00  0.84  0.00  0.00  0.00  0.00  0.00
  YS02001904YS02001907    1.00   0.00  0.15  0.00  0.84  0.00  0.00  0.00  0.00  0.00
  YS02001907YS02006553    1.00   0.00  0.02  0.00  0.98  0.00  0.00  0.00  0.00  0.00
  YS02001910YS02001907    1.00   0.00  0.00  0.00  0.97  0.00  0.00  0.03  0.12  0.00
  YS02001915YS02001910    1.00   0.00  0.00  0.00  0.97  0.03  0.00  0.00  0.13  0.00
  YS02001918YS02001915    1.00   0.00  0.01  0.00  0.98  0.02  0.00  0.00  0.72  0.00
  YS02001920YS02001918    1.00   0.00  0.01  0.00  0.99  0.00  0.00  0.00  0.00  0.00
  YS02001923YS02001920    1.00   0.00  0.00  0.00  1.00  0.00  0.00  0.00  0.90  0.00
  YS02001926YS02001923    1.00   0.00  0.07  0.00  0.08  0.00  0.85  0.00  0.00  0.00
  YS02001929YS02001926    1.00   0.00  0.13  0.00  0.87  0.00  0.00  0.00  0.80  0.00
  YS02006553YS02006556    1.00   0.01  0.00  0.00  0.99  0.00  0.00  0.00  0.03  0.00
  YS02006556YS02006558    1.00   0.00  0.00  0.00  1.00  0.00  0.00  0.00  0.00  0.00
  YS02006558YS02006561    1.00   0.16  0.00  0.00  0.08  0.76  0.00  0.00  0.18  0.00
  YS02006561YS02001783    1.00   0.16  0.00  0.00  0.11  0.73  0.00  0.00  0.67  0.00
  YS02163301YS02001633    1.00   0.00  0.15  0.00  0.85  0.00  0.00  0.00  0.00  0.00
  YS02163601YS02164001    1.00   0.00  0.08  0.00  0.92  0.00  0.00  0.00  0.00  0.00
  YS02164001YS02001641    1.00   0.01  0.07  0.00  0.92  0.00  0.00  0.00  0.05  0.00
  
  
  *************************
  Conduit Surcharge Summary
  *************************
  
  ----------------------------------------------------------------------------
                                                           Hours        Hours 
                         --------- Hours Full --------   Above Full   Capacity
  Conduit                Both Ends  Upstream  Dnstream   Normal Flow   Limited
  ----------------------------------------------------------------------------
  WS02003072WS02003073        0.01      0.01      0.01      1.71         0.01
  WS02004403WS02004404        0.01      0.01      0.01      0.01         0.01
  WS02004404WS02004405        0.01      0.01      0.01      3.57         0.01
  WS02004405WS02004406        0.01      0.01      0.01      0.88         0.01
  WS02006109WS02006110        0.85      0.85      2.47      1.08         0.01
  WS02006110WS02006113        0.01      0.01      2.46      0.01         0.01
  WS02006111WS02006112        0.01      0.01      2.62      0.01         0.01
  WS02006112WS02006115        0.01      0.01      1.28      0.01         0.01
  WS02006228WS02006109        2.44      2.48      2.44      2.68         2.44
  WS02006229WS02006228        2.44      2.45      2.44      2.54         2.41
  WS02006230WS02006229        2.50      2.54      2.50      4.14         2.50
  WS02006231WS02006230        0.86      0.86      1.22      3.84         0.01
  WS02006232WS02006231        1.12      1.12      2.47      1.23         0.01
  WS02006234WS02006232        2.36      2.36      2.47      1.21         1.19
  WS02006235WS02006234        1.62      1.63      2.37      3.74         0.03
  WS02006238WS02006235        2.40      2.40      2.47      0.01         0.01
  WS02006239WS02006238        2.44      2.46      2.45      2.43         2.13
  WS02006240WS02006239        2.37      2.41      2.40      2.43         1.99
  WS02006242WS02006240        2.40      2.40      2.45      2.56         0.01
  WS02006243WS02006242        2.39      2.39      2.42      0.01         0.08
  WS02006245WS02006243        2.39      2.39      2.39      1.50         1.48
  WS02006247WS02006245        2.39      2.39      2.39      3.53         2.37
  WS02006248WS02006247        2.38      2.38      2.39      0.01         0.09
  WS02006249WS02006248        2.38      2.38      2.38      3.49         0.01
  WS02006251WS02006249        2.38      2.38      2.38      2.48         2.26
  WS02006252WS02006251        2.53      2.53      2.54      2.53         0.01
  WS02006256WS02006235        3.74      3.80      6.11      1.53         0.01
  YS02001580YS02001583        0.83      0.83      0.90      0.01         0.01
  YS02001583YS02001586        0.84      0.84      1.02      0.01         0.01
  YS02001586YS02001590        1.03      1.03      1.10      0.01         0.01
  YS02001590YS02001593        1.11      1.11      1.13      1.18         0.01
  YS02001593YS02001596        1.12      1.12      1.23      0.01         0.01
  YS02001596YS02001600        1.28      1.28      1.41      0.01         0.01
  YS02001600YS02001601        1.48      1.48      1.70      0.01         0.01
  YS02001601YS02001602        1.63      1.63      1.73      1.39         0.01
  YS02001602YS02001605        1.59      1.59      1.63      2.37         0.01
  YS02001605YS02001607        1.56      1.59      1.56      1.68         1.56
  YS02001607YS02001610        1.11      1.11      1.14      0.01         0.01
  YS02001610YS02001613        1.11      1.11      1.14      0.01         0.01
  YS02001613YS02001616        1.07      1.07      1.11      0.01         0.01
  YS02001616YS02001619        1.05      1.05      1.07      0.01         0.08
  YS02001619YS02001622        1.05      1.05      1.05      1.06         0.94
  YS02001622YS02001625        1.05      1.05      1.25      0.01         0.01
  YS02001625YS02001629        0.99      0.99      1.25      0.01         0.01
  YS02001629YS02163301        1.26      1.26      1.27      0.02         0.11
  YS02001633YS02163601        1.29      1.29      1.33      0.28         0.27
  YS02001641YS02001644        1.23      1.25      1.23      1.75         1.20
  YS02001644YS02001647        1.01      1.01      1.23      0.03         0.01
  YS02001647YS02001649        1.01      1.01      1.17      0.01         0.01
  YS02001649YS02001757        1.17      1.17      1.26      0.04         0.04
  YS02001652YS02001649        0.97      0.97      1.17      0.01         0.01
  YS02001655YS02001652        0.68      0.68      0.95      0.01         0.01
  YS02001658YS02001655        0.35      0.35      0.68      0.01         0.01
  YS02001661YS02001658        0.11      0.11      0.35      0.01         0.01
  YS02001664YS02001661        0.01      0.01      0.15      0.01         0.01
  YS02001745YS02001748        0.01      0.01      0.26      0.01         0.01
  YS02001748YS02001751        0.30      0.30      0.50      0.01         0.01
  YS02001751YS02001754        0.50      0.50      0.82      0.01         0.01
  YS02001754YS02001757        0.89      0.89      1.26      0.01         0.01
  YS02001757CaochengTiaoxuchi        1.20      1.26      2.37      0.45         0.37
  YS02001759YS02001757        1.15      1.15      1.26      0.08         0.07
  YS02001762YS02001759        1.11      1.11      1.15      0.01         0.02
  YS02001765YS02001762        1.06      1.06      1.11      0.01         0.01
  YS02001767YS02001765        1.01      1.01      1.06      0.01         0.02
  YS02001770YS02001767        1.01      1.01      1.01      0.69         0.67
  YS02001774YS02001770        0.97      0.97      1.09      0.01         0.01
  YS02001779YS02001774        0.79      0.79      1.09      0.01         0.01
  YS02001783YS02001784        0.67      0.70      0.67      0.85         0.67
  YS02001784YS02001785        0.56      0.67      0.56      1.15         0.56
  YS02001786YS02001788        0.01      0.56      0.01      0.97         0.01
  YS02001790YS02001791        0.01      0.01      0.01      0.66         0.01
  YS02001793JiankangQianchi        0.01      0.01      7.70      0.01         0.01
  YS02001882YS02001884        0.63      0.63      0.65      0.01         0.01
  YS02001884YS02001887        0.67      0.67      0.69      0.01         0.01
  YS02001887YS02001890        0.70      0.70      0.71      0.19         0.01
  YS02001890YS02001895        0.62      0.62      0.73      0.01         0.01
  YS02001895YS02001898        0.62      0.62      0.62      0.01         0.01
  YS02001898YS02001901        0.63      0.63      0.67      0.01         0.01
  YS02001901YS02001904        0.66      0.66      0.67      0.01         0.01
  YS02001904YS02001907        0.66      0.66      0.95      0.01         0.01
  YS02001907YS02006553        1.17      1.17      1.26      0.01         0.01
  YS02001910YS02001907        0.73      0.73      0.91      0.01         0.01
  YS02001915YS02001910        0.63      0.63      0.73      0.01         0.01
  YS02001918YS02001915        0.54      0.54      0.63      0.01         0.01
  YS02001920YS02001918        0.54      0.54      0.56      0.01         0.01
  YS02001923YS02001920        0.50      0.50      0.56      0.01         0.01
  YS02001926YS02001923        0.20      0.20      0.23      0.01         0.01
  YS02001929YS02001926        0.03      0.03      0.23      0.01         0.01
  YS02006553YS02006556        0.82      0.82      0.94      0.01         0.01
  YS02006556YS02006558        0.87      0.87      0.97      0.01         0.01
  YS02006558YS02006561        0.58      0.81      0.58      1.09         0.58
  YS02006561YS02001783        0.50      0.50      0.70      0.01         0.01
  YS02163301YS02001633        1.27      1.27      1.31      0.01         0.01
  YS02163601YS02164001        1.25      1.25      1.33      0.04         0.01
  YS02164001YS02001641        1.25      1.25      1.25      0.83         0.80
  
  
  ***************
  Pumping Summary
  ***************
  
  ---------------------------------------------------------------------------------------------------------
                                                  Min       Avg       Max     Total     Power    % Time Off
                        Percent   Number of      Flow      Flow      Flow    Volume     Usage    Pump Curve
  Pump                 Utilized   Start-Ups       LPS       LPS       LPS  10^6 ltr     Kw-hr    Low   High
  ---------------------------------------------------------------------------------------------------------
  CC-R1                   22.43           2      0.00    683.00    683.00     4.412     84.15    0.0    8.4
  CC-R2                   18.37           2      0.00    683.00    683.00     3.613     69.39    0.0   10.2
  CC-S1                   45.26           6      0.00    200.00    200.00     2.607     14.50    0.0    0.0
  CC-S2                   31.61           2      0.00    200.00    200.00     1.821      9.74    0.0    0.0
  JK-R1                   10.69          16      0.00   1000.00   1000.00     3.079     37.31    0.0    0.0
  JK-R2                    0.16           1      0.00   1000.00   1000.00     0.047      0.36    0.0    0.0
  JK-S                    19.00          27      0.00    300.00    300.00     1.642     21.42    0.0    0.0
  

  Analysis begun on:  Thu Apr 24 00:06:41 2025
  Analysis ended on:  Thu Apr 24 00:06:42 2025
  Total elapsed time: 00:00:01