
  EPA STORM WATER MANAGEMENT MODEL - VERSION 5.2 (Build 5.2.4)
  PYSWMM TOOLKIT API - VERSION v1.0 (2023-11-27)
  ------------------------------------------------------------

  WARNING 04: minimum elevation drop used for Conduit WS02004404WS02004405
  WARNING 03: negative offset ignored for Link YS02001904YS02001907
  
  ****************
  Analysis Options
  ****************
  Flow Units ............... LPS
  Process Models:
    Rainfall/Runoff ........ YES
    RDII ................... NO
    Snowmelt ............... NO
    Groundwater ............ NO
    Flow Routing ........... YES
    Ponding Allowed ........ NO
    Water Quality .......... NO
  Infiltration Method ...... HORTON
  Flow Routing Method ...... DYNWAVE
  Surcharge Method ......... EXTRAN
  Starting Date ............ 08/28/2015 08:00:00
  Ending Date .............. 08/28/2015 16:00:00
  Antecedent Dry Days ...... 8.0
  Report Time Step ......... 00:01:00
  Wet Time Step ............ 00:01:00
  Dry Time Step ............ 00:01:00
  Routing Time Step ........ 30.00 sec
  Variable Time Step ....... YES
  Maximum Trials ........... 8
  Number of Threads ........ 4
  Head Tolerance ........... 0.001500 m
  
  
  **************************        Volume         Depth
  Runoff Quantity Continuity     hectare-m            mm
  **************************     ---------       -------
  Total Precipitation ......         1.505        45.382
  Evaporation Loss .........         0.000         0.000
  Infiltration Loss ........         0.092         2.788
  Surface Runoff ...........         1.380        41.615
  Final Storage ............         0.033         0.992
  Continuity Error (%) .....        -0.030
  
  
  **************************        Volume        Volume
  Flow Routing Continuity        hectare-m      10^6 ltr
  **************************     ---------     ---------
  Dry Weather Inflow .......         0.025         0.251
  Wet Weather Inflow .......         1.379        13.794
  Groundwater Inflow .......         0.000         0.000
  RDII Inflow ..............         0.000         0.000
  External Inflow ..........         0.083         0.834
  External Outflow .........         1.195        11.950
  Flooding Loss ............         0.261         2.611
  Evaporation Loss .........         0.000         0.000
  Exfiltration Loss ........         0.000         0.000
  Initial Stored Volume ....         0.243         2.431
  Final Stored Volume ......         0.280         2.802
  Continuity Error (%) .....        -0.309
  
  
  *************************
  Highest Continuity Errors
  *************************
  Node YS02001583 (-17.78%)
  Node YS02001884 (4.90%)
  Node YS02001774 (1.62%)
  Node WS02006256 (-1.07%)
  
  
  ***************************
  Time-Step Critical Elements
  ***************************
  Link WS02006252WS02006251 (45.97%)
  Link WS02004404WS02004405 (20.46%)
  Link WS02006238WS02006235 (11.17%)
  Link YS02001791YS02001793 (4.32%)
  Link WS02006235WS02006234 (4.25%)
  
  
  ********************************
  Highest Flow Instability Indexes
  ********************************
  Link WS02006113WS02006111 (46)
  Link WS02006111WS02006112 (25)
  Link WS02004404WS02004405 (20)
  Link WS02004403WS02004404 (18)
  Link WS02006252WS02006251 (15)
  
  
  *********************************
  Most Frequent Nonconverging Nodes
  *********************************
  Node CC-1 (15.75%)
  Node CC-2 (15.75%)
  Node JK-1 (15.75%)
  Node JK-2 (15.75%)
  Node WSC (15.75%)
  
  
  *************************
  Routing Time Step Summary
  *************************
  Minimum Time Step           :     0.02 sec
  Average Time Step           :     2.07 sec
  Maximum Time Step           :     7.04 sec
  % of Time in Steady State   :     0.00
  Average Iterations per Step :     3.21
  % of Steps Not Converging   :    15.75
  Time Step Frequencies       :
     30.000 - 13.228 sec      :     0.00 %
     13.228 -  5.833 sec      :    10.31 %
      5.833 -  2.572 sec      :    18.38 %
      2.572 -  1.134 sec      :    19.45 %
      1.134 -  0.500 sec      :    51.86 %
  
  
  ***************************
  Subcatchment Runoff Summary
  ***************************
  
  ------------------------------------------------------------------------------------------------------------------------------
                            Total      Total      Total      Total     Imperv       Perv      Total       Total     Peak  Runoff
                           Precip      Runon       Evap      Infil     Runoff     Runoff     Runoff      Runoff   Runoff   Coeff
  Subcatchment                 mm         mm         mm         mm         mm         mm         mm    10^6 ltr      LPS
  ------------------------------------------------------------------------------------------------------------------------------
  sub60                     45.38       0.00       0.00       1.72      38.73       3.73      42.46        0.56   363.55   0.936
  sub61                     45.38       0.00       0.00       2.48      36.54       5.24      41.77        0.77   497.94   0.920
  sub62                     45.38       0.00       0.00       1.15      40.47       2.49      42.95        1.18   694.96   0.946
  sub63                     45.38       0.00       0.00       4.53      31.25       8.64      39.89        0.91   531.64   0.879
  sub64                     45.38       0.00       0.00       2.30      37.37       4.51      41.88        1.01   544.40   0.923
  sub65                     45.38       0.00       0.00       1.99      38.23       3.91      42.15        1.16   603.16   0.929
  sub66                     45.38       0.00       0.00       5.51      31.15       7.65      38.80        1.81   744.04   0.855
  sub67                     45.38       0.00       0.00       1.11      40.51       2.52      43.03        0.80   566.97   0.948
  sub68                     45.38       0.00       0.00       2.05      37.84       4.30      42.15        1.16   711.18   0.929
  sub69                     45.38       0.00       0.00       1.78      38.47       5.03      43.50        1.61   821.73   0.958
  sub70                     45.38       0.00       0.00       5.81      29.79       9.62      39.41        1.14   424.01   0.868
  sub71                     45.38       0.00       0.00       1.17      40.43       2.46      42.89        1.12   592.47   0.945
  sub72                     45.38       0.00       0.00       1.04      40.81       2.14      42.95        0.59   278.07   0.946
  
  
  ******************
  Node Depth Summary
  ******************
  
  ---------------------------------------------------------------------------------
                                 Average  Maximum  Maximum  Time of Max    Reported
                                   Depth    Depth      HGL   Occurrence   Max Depth
  Node                 Type       Meters   Meters   Meters  days hr:min      Meters
  ---------------------------------------------------------------------------------
  WS02003060           JUNCTION     0.24     0.38     5.31     0  02:43        0.38
  WS02003066           JUNCTION     0.20     0.30     5.85     0  02:43        0.30
  WS02003067           JUNCTION     0.50     0.70     6.02     0  02:43        0.70
  WS02003069           JUNCTION     0.26     0.43     5.01     0  02:44        0.43
  WS02003072           JUNCTION     0.33     0.50     4.87     0  02:44        0.50
  WS02003073           JUNCTION     0.19     0.30     4.36     0  02:45        0.30
  WS02004401           JUNCTION     0.60     0.87     6.87     0  02:40        0.87
  WS02004402           JUNCTION     0.63     0.90     6.86     0  02:41        0.90
  WS02004403           JUNCTION     0.65     0.92     6.85     0  02:40        0.92
  WS02004404           JUNCTION     0.73     1.01     6.86     0  02:40        0.99
  WS02004405           JUNCTION     0.71     0.96     6.81     0  02:41        0.96
  WS02004406           JUNCTION     0.73     0.96     6.79     0  02:40        0.96
  WS02004407           JUNCTION     0.18     0.30     6.61     0  02:41        0.30
  WS02004409           JUNCTION     0.39     0.66     6.43     0  02:42        0.66
  WS02004410           JUNCTION     0.42     0.68     6.40     0  02:42        0.68
  WS02004411           JUNCTION     0.44     0.69     6.37     0  02:42        0.69
  WS02004412           JUNCTION     0.46     0.69     6.33     0  02:42        0.69
  WS02004413           JUNCTION     0.62     0.85     6.32     0  02:42        0.85
  WS02006109           JUNCTION     0.64     1.67     8.29     0  03:09        1.67
  WS02006110           JUNCTION     0.64     1.29     7.87     0  02:07        1.08
  WS02006111           JUNCTION     0.17     0.29     6.99     0  03:44        0.29
  WS02006112           JUNCTION     0.75     1.11     6.99     0  02:13        1.05
  WS02006113           JUNCTION     0.26     0.46     7.35     0  02:50        0.46
  WS02006115           JUNCTION     0.48     0.77     6.91     0  02:40        0.77
  WS02006116           JUNCTION     0.57     0.85     6.89     0  02:40        0.85
  WS02006228           JUNCTION     0.63     1.76     8.41     0  03:09        1.76
  WS02006229           JUNCTION     0.60     1.59     8.29     0  03:09        1.59
  WS02006230           JUNCTION     0.60     1.42     8.17     0  02:07        1.31
  WS02006231           JUNCTION     0.41     1.34     8.46     0  02:07        1.34
  WS02006232           JUNCTION     0.54     1.72     8.76     0  03:41        1.72
  WS02006234           JUNCTION     0.46     1.41     8.57     0  03:41        1.41
  WS02006235           JUNCTION     0.50     1.51     8.67     0  02:35        1.31
  WS02006238           JUNCTION     0.53     1.55     8.70     0  02:35        1.34
  WS02006239           JUNCTION     0.49     1.53     8.74     0  02:35        1.33
  WS02006240           JUNCTION     0.46     1.48     8.77     0  02:06        1.28
  WS02006242           JUNCTION     0.53     1.51     8.78     0  02:35        1.34
  WS02006243           JUNCTION     0.45     1.37     8.79     0  02:06        1.22
  WS02006245           JUNCTION     0.45     1.29     8.77     0  02:06        1.17
  WS02006247           JUNCTION     0.48     1.25     8.75     0  02:12        1.17
  WS02006248           JUNCTION     0.44     1.10     8.69     0  01:55        1.10
  WS02006249           JUNCTION     0.47     1.09     8.69     0  01:47        1.09
  WS02006251           JUNCTION     0.47     1.52     9.19     0  01:47        1.15
  WS02006252           JUNCTION     0.35     1.50     9.74     0  00:00        0.69
  WS02006256           JUNCTION     0.92     2.35     9.28     0  00:00        2.35
  WSF200               JUNCTION     0.17     0.29     5.52     0  02:43        0.29
  YS02001580           JUNCTION     0.07     1.05     9.59     0  01:37        0.77
  YS02001583           JUNCTION     0.11     1.14     9.64     0  01:37        0.82
  YS02001586           JUNCTION     0.16     1.13     9.30     0  01:36        1.13
  YS02001590           JUNCTION     0.25     1.40     9.26     0  01:36        1.38
  YS02001593           JUNCTION     0.18     1.46     9.32     0  01:36        1.29
  YS02001596           JUNCTION     0.25     1.80     9.22     0  01:36        1.66
  YS02001600           JUNCTION     0.30     1.87     9.00     0  01:36        1.86
  YS02001601           JUNCTION     0.48     2.06     8.90     0  01:36        2.06
  YS02001602           JUNCTION     0.40     1.87     8.77     0  01:37        1.87
  YS02001605           JUNCTION     0.37     1.78     8.68     0  01:37        1.78
  YS02001607           JUNCTION     0.38     1.68     8.53     0  01:37        1.68
  YS02001610           JUNCTION     0.43     1.68     8.48     0  01:37        1.68
  YS02001613           JUNCTION     0.38     1.70     8.54     0  01:37        1.66
  YS02001616           JUNCTION     0.31     1.61     8.52     0  01:37        1.61
  YS02001619           JUNCTION     0.29     1.61     8.54     0  01:37        1.61
  YS02001622           JUNCTION     0.28     1.59     8.49     0  01:37        1.57
  YS02001625           JUNCTION     0.55     1.78     8.38     0  01:37        1.78
  YS02001629           JUNCTION     0.39     1.85     8.40     0  01:37        1.85
  YS02001633           JUNCTION     0.47     2.08     8.53     0  01:38        2.08
  YS02001641           JUNCTION     0.46     1.98     8.42     0  01:39        1.93
  YS02001644           JUNCTION     0.46     1.92     8.35     0  01:39        1.92
  YS02001647           JUNCTION     0.25     1.82     8.43     0  01:40        1.63
  YS02001649           JUNCTION     0.28     2.05     8.44     0  01:39        1.79
  YS02001652           JUNCTION     0.18     2.16     8.76     0  01:39        1.59
  YS02001655           JUNCTION     0.14     2.20     9.05     0  01:39        1.36
  YS02001658           JUNCTION     0.09     2.30     9.44     0  01:40        1.10
  YS02001661           JUNCTION     0.13     0.90     8.30     0  01:41        0.87
  YS02001664           JUNCTION     0.04     0.28     8.20     0  01:40        0.28
  YS02001745           JUNCTION     0.04     0.63     8.15     0  01:40        0.58
  YS02001748           JUNCTION     0.08     1.73     8.81     0  01:41        0.99
  YS02001751           JUNCTION     0.11     2.20     9.08     0  01:40        1.15
  YS02001754           JUNCTION     0.16     2.20     8.81     0  01:40        1.51
  YS02001757           JUNCTION     0.32     2.09     8.35     0  01:40        1.81
  YS02001759           JUNCTION     0.25     1.93     8.30     0  01:40        1.72
  YS02001762           JUNCTION     0.24     1.97     8.37     0  01:40        1.68
  YS02001765           JUNCTION     0.22     2.01     8.46     0  01:39        1.64
  YS02001767           JUNCTION     0.22     2.03     8.52     0  01:39        1.63
  YS02001770           JUNCTION     0.23     1.95     8.44     0  01:39        1.66
  YS02001774           JUNCTION     0.29     2.02     8.44     0  01:40        1.74
  YS02001779           JUNCTION     0.14     1.68     8.37     0  01:39        1.48
  YS02001783           JUNCTION     0.21     1.70     7.84     0  01:38        1.22
  YS02001784           JUNCTION     0.22     1.40     7.47     0  01:38        1.11
  YS02001786           JUNCTION     0.19     1.38     7.41     0  01:38        0.91
  YS02001788           JUNCTION     0.13     0.62     6.60     0  01:39        0.61
  YS02001790           JUNCTION     0.16     0.72     6.36     0  01:46        0.71
  YS02001791           JUNCTION     0.10     0.44     5.91     0  01:50        0.42
  YS02001793           JUNCTION     0.05     0.30     5.13     0  01:39        0.29
  YS02001882           JUNCTION     0.27     1.83     8.55     0  01:38        1.83
  YS02001884           JUNCTION     0.36     1.93     8.55     0  01:38        1.93
  YS02001887           JUNCTION     0.44     2.00     8.54     0  01:38        2.00
  YS02001890           JUNCTION     0.47     1.81     8.32     0  01:38        1.81
  YS02001895           JUNCTION     0.24     1.75     8.50     0  01:38        1.75
  YS02001898           JUNCTION     0.25     1.77     8.51     0  01:38        1.77
  YS02001901           JUNCTION     0.36     1.87     8.48     0  01:38        1.87
  YS02001904           JUNCTION     0.34     1.85     8.48     0  01:38        1.63
  YS02001907           JUNCTION     0.67     1.96     8.25     0  01:38        1.96
  YS02001910           JUNCTION     0.46     1.97     8.47     0  01:39        1.84
  YS02001915           JUNCTION     0.27     1.92     8.64     0  01:39        1.71
  YS02001918           JUNCTION     0.14     1.81     8.88     0  01:39        1.43
  YS02001920           JUNCTION     0.22     2.14     9.15     0  01:39        1.54
  YS02001923           JUNCTION     0.11     2.03     9.29     0  01:39        1.31
  YS02001926           JUNCTION     0.14     1.90     9.35     0  01:39        1.14
  YS02001929           JUNCTION     0.07     1.78     9.47     0  01:39        0.92
  YS02006553           JUNCTION     0.67     2.10     8.38     0  01:38        1.96
  YS02006556           JUNCTION     0.64     2.22     8.53     0  01:38        1.93
  YS02006558           JUNCTION     0.69     2.30     8.57     0  01:38        1.95
  YS02006561           JUNCTION     0.13     1.57     8.23     0  01:38        0.91
  YS02163301           JUNCTION     0.42     1.98     8.50     0  01:38        1.98
  YS02163601           JUNCTION     0.51     2.08     8.48     0  01:38        2.08
  YS02164001           JUNCTION     0.45     2.01     8.46     0  01:39        2.00
  CC-1                 OUTFALL      0.00     0.00     0.00     0  00:00        0.00
  CC-2                 OUTFALL      0.00     0.00     0.00     0  00:00        0.00
  JK-1                 OUTFALL      0.00     0.00     0.00     0  00:00        0.00
  JK-2                 OUTFALL      0.00     0.00     0.00     0  00:00        0.00
  WSC                  OUTFALL      0.19     0.30     0.97     0  02:45        0.30
  CC-storage           STORAGE      0.96     1.51     7.01     0  02:06        1.51
  JK-storage           STORAGE      3.30     4.24     5.04     0  01:45        4.20
  
  
  *******************
  Node Inflow Summary
  *******************
  
  -------------------------------------------------------------------------------------------------
                                  Maximum  Maximum                  Lateral       Total        Flow
                                  Lateral    Total  Time of Max      Inflow      Inflow     Balance
                                   Inflow   Inflow   Occurrence      Volume      Volume       Error
  Node                 Type           LPS      LPS  days hr:min    10^6 ltr    10^6 ltr     Percent
  -------------------------------------------------------------------------------------------------
  WS02003060           JUNCTION     16.53   549.26     0  02:43       0.476        5.25       0.039
  WS02003066           JUNCTION      0.00   531.85     0  02:43           0        4.78       0.031
  WS02003067           JUNCTION      0.00   531.59     0  02:43           0        4.78       0.091
  WS02003069           JUNCTION      0.32   549.16     0  02:44     0.00922        5.26       0.068
  WS02003072           JUNCTION      0.00   548.23     0  02:44           0        5.26       0.122
  WS02003073           JUNCTION      1.82   549.37     0  02:45      0.0524         5.3       0.092
  WS02004401           JUNCTION      0.00   538.59     0  02:08           0        4.89       0.238
  WS02004402           JUNCTION      0.00   539.47     0  02:40           0        4.88       0.239
  WS02004403           JUNCTION      0.00   538.60     0  02:40           0        4.87       0.228
  WS02004404           JUNCTION      0.16   549.45     0  02:39     0.00467        4.86       0.215
  WS02004405           JUNCTION      0.04   598.43     0  02:40      0.0011        4.85       0.205
  WS02004406           JUNCTION      0.00   541.54     0  02:40           0        4.84       0.465
  WS02004407           JUNCTION      0.00   536.85     0  02:41           0        4.82       0.043
  WS02004409           JUNCTION      0.00   535.94     0  02:41           0        4.82       0.080
  WS02004410           JUNCTION      0.00   533.80     0  02:42           0        4.82       0.106
  WS02004411           JUNCTION      0.00   533.41     0  02:41           0        4.81       0.127
  WS02004412           JUNCTION      0.00   532.54     0  02:42           0        4.81       0.169
  WS02004413           JUNCTION      0.00   532.16     0  02:42           0         4.8       0.296
  WS02006109           JUNCTION      1.23   560.03     0  02:07      0.0354        4.95       0.244
  WS02006110           JUNCTION      0.00   564.38     0  03:09           0        4.94       0.206
  WS02006111           JUNCTION      0.00   561.71     0  02:50           0        4.93       0.033
  WS02006112           JUNCTION      0.00   543.71     0  03:44           0        4.93       0.389
  WS02006113           JUNCTION      0.00   589.99     0  03:09           0        4.93       0.070
  WS02006115           JUNCTION      0.00   552.02     0  03:09           0        4.91       0.173
  WS02006116           JUNCTION      0.00   540.89     0  01:59           0         4.9       0.080
  WS02006228           JUNCTION      0.00   558.39     0  02:07           0        4.92       0.119
  WS02006229           JUNCTION      0.00   557.88     0  02:07           0        4.93       0.128
  WS02006230           JUNCTION     10.28   597.40     0  03:41       0.296        4.93       0.096
  WS02006231           JUNCTION      0.00   575.76     0  03:14           0        4.64      -0.022
  WS02006232           JUNCTION      0.00   574.79     0  02:46           0        4.65       0.313
  WS02006234           JUNCTION      0.00   569.99     0  02:46           0        4.64      -0.189
  WS02006235           JUNCTION      0.00   564.82     0  02:41           0        4.72       0.197
  WS02006238           JUNCTION      0.00   425.64     0  02:10           0        3.84      -0.079
  WS02006239           JUNCTION      0.00   423.87     0  02:10           0         3.8      -0.055
  WS02006240           JUNCTION      0.00   420.88     0  02:20           0        3.76      -0.022
  WS02006242           JUNCTION      0.00   420.96     0  02:20           0        3.73      -0.025
  WS02006243           JUNCTION      0.00   420.97     0  02:20           0        3.71       0.055
  WS02006245           JUNCTION      0.00   420.39     0  02:10           0        3.72       0.263
  WS02006247           JUNCTION      0.00   420.89     0  02:10           0        3.72       0.028
  WS02006248           JUNCTION      0.00   421.51     0  02:10           0        3.72       0.070
  WS02006249           JUNCTION      0.00   459.02     0  00:00           0        3.95       0.214
  WS02006251           JUNCTION      0.08   409.64     0  01:47     0.00222        3.95      -0.028
  WS02006252           JUNCTION      0.00   400.00     0  00:00           0        3.94      -0.014
  WS02006256           JUNCTION      0.00   300.00     0  00:00           0        1.36      -1.063
  WSF200               JUNCTION      0.00   532.00     0  02:43           0        4.78       0.009
  YS02001580           JUNCTION      0.00   258.11     0  01:37           0     0.00461      -4.707
  YS02001583           JUNCTION      0.00   280.35     0  01:37           0      0.0142     -15.094
  YS02001586           JUNCTION    424.01   424.47     0  01:43        1.14        1.15       0.162
  YS02001590           JUNCTION      0.00   318.05     0  01:46           0        1.06      -0.062
  YS02001593           JUNCTION      0.00   318.01     0  01:46           0        1.06       0.029
  YS02001596           JUNCTION      0.00   317.97     0  01:52           0        1.06       0.003
  YS02001600           JUNCTION      0.00   318.00     0  01:50           0        1.06       0.007
  YS02001601           JUNCTION    821.73  1139.22     0  01:41        1.61        2.67       0.035
  YS02001602           JUNCTION      0.00   594.89     0  01:37           0        1.92       0.028
  YS02001605           JUNCTION      0.00   594.76     0  01:37           0        1.84       0.028
  YS02001607           JUNCTION      0.00   594.65     0  01:37           0        1.84       0.068
  YS02001610           JUNCTION      0.00   564.28     0  01:37           0        1.83       0.124
  YS02001613           JUNCTION      0.00   531.57     0  01:37           0        1.62       0.075
  YS02001616           JUNCTION      0.00   486.50     0  01:37           0        1.62       0.015
  YS02001619           JUNCTION    744.04   927.87     0  01:37        1.81        3.42      -0.021
  YS02001622           JUNCTION      0.00   848.97     0  01:37           0        3.42      -0.007
  YS02001625           JUNCTION      0.00   832.77     0  01:41           0        3.42       0.250
  YS02001629           JUNCTION      0.00   823.34     0  02:05           0        3.03       0.020
  YS02001633           JUNCTION    603.36  1336.71     0  01:38        1.17        4.19       0.079
  YS02001641           JUNCTION      0.00  1331.12     0  01:38           0        4.19       0.069
  YS02001644           JUNCTION    544.44  1837.46     0  01:38        1.01        5.19       0.060
  YS02001647           JUNCTION      0.00  1840.34     0  01:38           0        5.18       0.004
  YS02001649           JUNCTION      0.00  2165.80     0  01:39           0        6.09       0.003
  YS02001652           JUNCTION      0.00   628.76     0  01:42           0       0.911      -0.239
  YS02001655           JUNCTION      0.15   760.40     0  01:39     0.00443       0.911      -0.016
  YS02001658           JUNCTION      0.00   743.84     0  01:48           0       0.907      -0.311
  YS02001661           JUNCTION      0.00   536.07     0  01:40           0       0.907       0.075
  YS02001664           JUNCTION    531.64   531.64     0  01:40       0.905       0.905      -0.017
  YS02001745           JUNCTION    363.56   363.56     0  01:39       0.557       0.557       0.326
  YS02001748           JUNCTION      0.04   615.94     0  01:43      0.0013        0.56      -0.456
  YS02001751           JUNCTION      0.01   465.47     0  01:44    0.000317       0.568       0.134
  YS02001754           JUNCTION      0.26   454.24     0  01:41     0.00749       0.579      -0.369
  YS02001757           JUNCTION      0.00  3350.45     0  01:41           0        8.63       0.068
  YS02001759           JUNCTION    497.98  1206.25     0  01:39       0.767        1.96      -0.021
  YS02001762           JUNCTION      0.00   709.70     0  01:39           0        1.19      -0.005
  YS02001765           JUNCTION      0.00   709.40     0  01:39           0        1.19       0.003
  YS02001767           JUNCTION      0.54   708.09     0  01:39      0.0154        1.19       0.005
  YS02001770           JUNCTION    695.11   703.52     0  01:40        1.18        1.22      -0.041
  YS02001774           JUNCTION      0.00   495.13     0  01:39           0      0.0688       1.645
  YS02001779           JUNCTION      0.01   495.05     0  01:39    0.000144      0.0244      -2.430
  YS02001783           JUNCTION      0.00  1152.86     0  01:40           0        3.29       0.006
  YS02001784           JUNCTION      1.06  1154.17     0  01:40      0.0305        3.32       0.016
  YS02001786           JUNCTION      0.06  1153.95     0  01:40     0.00162        3.33       0.020
  YS02001788           JUNCTION      0.07  1159.76     0  01:39     0.00204        3.33       0.008
  YS02001790           JUNCTION      0.15  1169.07     0  01:39     0.00446        3.33       0.020
  YS02001791           JUNCTION      0.00  1274.32     0  01:46           0        3.33      -0.016
  YS02001793           JUNCTION      0.00  1225.17     0  01:46           0        3.33       0.008
  YS02001882           JUNCTION      0.00    77.91     0  01:37           0      0.0122       4.145
  YS02001884           JUNCTION      0.00   126.50     0  01:37           0      0.0477       5.154
  YS02001887           JUNCTION    567.42   583.76     0  01:38       0.812       0.845       0.507
  YS02001890           JUNCTION      0.00   590.65     0  01:38           0       0.805       0.626
  YS02001895           JUNCTION      0.00   597.53     0  01:38           0       0.794       0.166
  YS02001898           JUNCTION      0.00   603.25     0  01:38           0       0.792      -0.009
  YS02001901           JUNCTION      0.00   610.68     0  01:38           0       0.796       0.393
  YS02001904           JUNCTION      0.00   613.18     0  01:38           0       0.809       0.300
  YS02001907           JUNCTION      0.00  1543.67     0  01:40           0         2.6       0.671
  YS02001910           JUNCTION      0.00  1027.38     0  01:40           0         1.8       0.408
  YS02001915           JUNCTION    592.49  1027.17     0  01:40        1.12        1.86       0.076
  YS02001918           JUNCTION      0.00   721.91     0  01:38           0       0.767      -0.001
  YS02001920           JUNCTION      2.87   609.68     0  01:38      0.0827       0.737      -0.022
  YS02001923           JUNCTION      0.04   774.61     0  01:38     0.00109       0.635      -0.113
  YS02001926           JUNCTION      0.05  1096.94     0  01:39      0.0015       0.613      -0.008
  YS02001929           JUNCTION    278.07   859.58     0  01:39        0.59       0.597      -0.052
  YS02006553           JUNCTION      0.00   789.73     0  01:53           0        2.17       0.539
  YS02006556           JUNCTION      0.00   790.17     0  01:54           0        2.18       0.364
  YS02006558           JUNCTION    712.06  1186.40     0  01:38        1.18        3.33       0.106
  YS02006561           JUNCTION      0.00  1186.61     0  01:38           0        3.29      -0.002
  YS02163301           JUNCTION      0.00   829.45     0  02:05           0        3.03       0.045
  YS02163601           JUNCTION      0.11  1336.77     0  01:38     0.00317        4.19       0.118
  YS02164001           JUNCTION      0.00  1334.17     0  01:38           0        4.19       0.057
  CC-1                 OUTFALL       0.00   683.00     0  00:00           0        2.93       0.000
  CC-2                 OUTFALL       0.00   683.00     0  00:00           0        1.76       0.000
  JK-1                 OUTFALL       0.00  1000.00     0  00:00           0        1.75       0.000
  JK-2                 OUTFALL       0.00  1000.00     0  00:00           0       0.213       0.000
  WSC                  OUTFALL       0.00   548.46     0  02:45           0         5.3       0.000
  CC-storage           STORAGE       0.00  3350.89     0  01:41           0        10.8      -0.102
  JK-storage           STORAGE       0.00  1263.37     0  01:50           0        3.48       0.018
  
  
  **********************
  Node Surcharge Summary
  **********************
  
  Surcharging occurs when water rises above the top of the highest conduit.
  ---------------------------------------------------------------------
                                               Max. Height   Min. Depth
                                   Hours       Above Crown    Below Rim
  Node                 Type      Surcharged         Meters       Meters
  ---------------------------------------------------------------------
  WS02004404           JUNCTION        0.01          0.007        2.773
  WS02006109           JUNCTION        1.99          0.851        0.969
  WS02006110           JUNCTION        0.63          0.376        1.474
  WS02006112           JUNCTION        1.00          0.111        1.569
  WS02006228           JUNCTION        1.99          0.927        1.273
  WS02006229           JUNCTION        1.99          0.792        1.658
  WS02006230           JUNCTION        0.65          0.340        1.230
  WS02006231           JUNCTION        0.89          0.630        0.900
  WS02006232           JUNCTION        2.02          1.021        0.459
  WS02006234           JUNCTION        1.49          0.694        0.546
  WS02006235           JUNCTION        1.94          0.799        0.491
  WS02006238           JUNCTION        1.99          0.834        0.596
  WS02006239           JUNCTION        1.96          0.787        0.503
  WS02006240           JUNCTION        1.99          0.772        0.618
  WS02006242           JUNCTION        2.01          0.781        0.039
  WS02006243           JUNCTION        1.99          0.658        0.112
  WS02006245           JUNCTION        1.99          0.578        0.272
  WS02006247           JUNCTION        1.99          0.543        0.217
  WS02006248           JUNCTION        1.98          0.380        0.000
  WS02006249           JUNCTION        1.98          0.390        0.000
  WS02006251           JUNCTION        1.01          0.488        0.692
  WS02006252           JUNCTION        2.14          1.100        0.000
  WS02006256           JUNCTION        5.18          2.050        0.000
  YS02001580           JUNCTION        0.42          0.450        0.000
  YS02001583           JUNCTION        0.42          0.500        0.000
  YS02001586           JUNCTION        0.57          0.510        0.000
  YS02001590           JUNCTION        0.64          0.750        0.000
  YS02001593           JUNCTION        0.64          0.840        0.000
  YS02001596           JUNCTION        0.72          1.070        0.000
  YS02001600           JUNCTION        0.84          1.190        0.000
  YS02001601           JUNCTION        1.19          1.440        0.000
  YS02001602           JUNCTION        1.06          1.270        0.000
  YS02001605           JUNCTION        1.01          1.180        0.000
  YS02001607           JUNCTION        0.60          0.680        0.000
  YS02001610           JUNCTION        0.62          0.680        0.000
  YS02001613           JUNCTION        0.59          0.700        0.000
  YS02001616           JUNCTION        0.56          0.610        0.000
  YS02001619           JUNCTION        0.54          0.610        0.000
  YS02001622           JUNCTION        0.54          0.585        0.035
  YS02001625           JUNCTION        0.70          0.780        0.000
  YS02001629           JUNCTION        0.49          0.470        0.000
  YS02001633           JUNCTION        0.72          1.060        0.000
  YS02001641           JUNCTION        0.66          0.985        0.115
  YS02001644           JUNCTION        0.64          0.920        0.000
  YS02001647           JUNCTION        0.46          0.821        0.079
  YS02001649           JUNCTION        0.57          1.046        0.004
  YS02001652           JUNCTION        0.38          1.130        0.000
  YS02001655           JUNCTION        0.20          1.200        0.000
  YS02001658           JUNCTION        0.03          1.300        0.000
  YS02001748           JUNCTION        0.01          0.652        0.538
  YS02001751           JUNCTION        0.08          1.200        0.000
  YS02001754           JUNCTION        0.27          1.150        0.000
  YS02001757           JUNCTION        0.63          1.089        0.121
  YS02001759           JUNCTION        0.53          0.934        0.276
  YS02001762           JUNCTION        0.50          0.971        0.179
  YS02001765           JUNCTION        0.44          1.012        0.088
  YS02001767           JUNCTION        0.42          1.030        0.000
  YS02001770           JUNCTION        0.38          0.920        0.000
  YS02001774           JUNCTION        0.48          1.017        0.033
  YS02001779           JUNCTION        0.27          0.680        0.000
  YS02001783           JUNCTION        0.42          0.900        0.700
  YS02001784           JUNCTION        0.40          0.602        0.888
  YS02001786           JUNCTION        0.31          0.584        0.846
  YS02001882           JUNCTION        0.37          0.830        0.000
  YS02001884           JUNCTION        0.38          0.870        0.000
  YS02001887           JUNCTION        0.41          0.950        0.000
  YS02001890           JUNCTION        0.42          0.760        0.000
  YS02001895           JUNCTION        0.36          0.750        0.000
  YS02001898           JUNCTION        0.35          0.740        0.000
  YS02001901           JUNCTION        0.40          0.870        0.000
  YS02001904           JUNCTION        0.39          0.850        0.000
  YS02001907           JUNCTION        0.57          0.950        0.000
  YS02001910           JUNCTION        0.44          0.968        0.132
  YS02001915           JUNCTION        0.37          0.919        0.081
  YS02001918           JUNCTION        0.29          0.810        0.000
  YS02001920           JUNCTION        0.30          1.140        0.000
  YS02001923           JUNCTION        0.01          0.820        0.000
  YS02001926           JUNCTION        0.01          0.900        0.000
  YS02001929           JUNCTION        0.01          0.780        0.000
  YS02006553           JUNCTION        0.59          1.098        0.092
  YS02006556           JUNCTION        0.51          1.182        0.168
  YS02006558           JUNCTION        0.50          1.202        0.198
  YS02006561           JUNCTION        0.25          0.768        0.382
  YS02163301           JUNCTION        0.70          0.978        0.052
  YS02163601           JUNCTION        0.74          1.080        0.000
  YS02164001           JUNCTION        0.67          1.005        0.095
  
  
  *********************
  Node Flooding Summary
  *********************
  
  Flooding refers to all water that overflows a node, whether it ponds or not.
  --------------------------------------------------------------------------
                                                             Total   Maximum
                                 Maximum   Time of Max       Flood    Ponded
                        Hours       Rate    Occurrence      Volume     Depth
  Node                 Flooded       LPS   days hr:min    10^6 ltr    Meters
  --------------------------------------------------------------------------
  WS02006248              0.01     20.80      0  02:35       0.000     0.000
  WS02006249              0.95    107.35      0  01:47       0.218     0.000
  WS02006252              0.01    245.63      0  00:00       0.000     0.000
  WS02006256              1.26    293.19      0  00:00       0.434     0.000
  YS02001580              0.01    196.13      0  01:37       0.001     0.000
  YS02001583              0.01    180.69      0  01:37       0.001     0.000
  YS02001586              0.30    172.74      0  01:37       0.075     0.000
  YS02001590              0.01    152.52      0  01:36       0.000     0.000
  YS02001593              0.01     66.88      0  01:36       0.000     0.000
  YS02001596              0.01     32.65      0  01:36       0.000     0.000
  YS02001600              0.01     18.59      0  01:36       0.000     0.000
  YS02001601              0.51    741.41      0  01:41       0.754     0.000
  YS02001602              0.39     62.00      0  01:54       0.079     0.000
  YS02001605              0.01     12.36      0  01:37       0.000     0.000
  YS02001607              0.01    242.15      0  01:37       0.001     0.000
  YS02001610              0.34    263.22      0  01:38       0.215     0.000
  YS02001613              0.01     77.85      0  01:37       0.000     0.000
  YS02001616              0.01    108.92      0  01:37       0.000     0.000
  YS02001619              0.01     58.47      0  01:37       0.000     0.000
  YS02001625              0.31    757.77      0  01:42       0.388     0.000
  YS02001629              0.04    104.65      0  01:37       0.002     0.000
  YS02001633              0.01      7.00      0  01:38       0.000     0.000
  YS02001644              0.01     41.16      0  01:40       0.001     0.000
  YS02001652              0.01     80.04      0  01:39       0.000     0.000
  YS02001655              0.01    546.41      0  01:39       0.001     0.000
  YS02001658              0.01    281.93      0  01:40       0.000     0.000
  YS02001751              0.01    318.39      0  01:40       0.000     0.000
  YS02001754              0.01     67.38      0  01:40       0.000     0.000
  YS02001767              0.01    107.07      0  01:39       0.000     0.000
  YS02001770              0.01    186.23      0  01:39       0.000     0.000
  YS02001779              0.01    478.98      0  01:39       0.006     0.000
  YS02001882              0.01     10.95      0  01:38       0.000     0.000
  YS02001884              0.01     10.07      0  01:38       0.000     0.000
  YS02001887              0.01     11.46      0  01:38       0.000     0.000
  YS02001890              0.04    231.43      0  01:38       0.006     0.000
  YS02001895              0.01     69.56      0  01:38       0.000     0.000
  YS02001898              0.01     84.10      0  01:38       0.000     0.000
  YS02001901              0.01     39.45      0  01:38       0.000     0.000
  YS02001904              0.01     95.53      0  01:38       0.000     0.000
  YS02001907              0.23   1098.27      0  01:40       0.418     0.000
  YS02001918              0.01    156.17      0  01:39       0.002     0.000
  YS02001920              0.01     20.15      0  01:39       0.000     0.000
  YS02001923              0.01    154.63      0  01:39       0.000     0.000
  YS02001926              0.01    844.83      0  01:39       0.002     0.000
  YS02001929              0.01    653.59      0  01:39       0.003     0.000
  YS02163601              0.01      9.47      0  01:38       0.000     0.000
  
  
  **********************
  Storage Volume Summary
  **********************
  
  ------------------------------------------------------------------------------------------------
                         Average    Avg   Evap  Exfil     Maximum    Max    Time of Max    Maximum
                          Volume   Pcnt   Pcnt   Pcnt      Volume   Pcnt     Occurrence    Outflow
  Storage Unit           1000 m³   Full   Loss   Loss     1000 m³   Full    days hr:min        LPS
  ------------------------------------------------------------------------------------------------
  CC-storage               2.675   41.7    0.0    0.0       4.207   65.6       0  02:06    1783.53
  JK-storage               0.166   56.9    0.0    0.0       0.213   73.0       0  01:45    2300.00
  
  
  ***********************
  Outfall Loading Summary
  ***********************
  
  -----------------------------------------------------------
                         Flow       Avg       Max       Total
                         Freq      Flow      Flow      Volume
  Outfall Node           Pcnt       LPS       LPS    10^6 ltr
  -----------------------------------------------------------
  CC-1                  17.08    683.00    683.00       2.931
  CC-2                  10.93    683.00    683.00       1.756
  JK-1                   8.34   1000.00   1000.00       1.754
  JK-2                   0.88   1000.00   1000.00       0.213
  WSC                   99.96    258.27    548.46       5.298
  -----------------------------------------------------------
  System                27.44   3624.27   3397.10      11.950
  
  
  ********************
  Link Flow Summary
  ********************
  
  -----------------------------------------------------------------------------
                                 Maximum  Time of Max   Maximum    Max/    Max/
                                  |Flow|   Occurrence   |Veloc|    Full    Full
  Link                 Type          LPS  days hr:min     m/sec    Flow   Depth
  -----------------------------------------------------------------------------
  1                    CONDUIT    548.46     0  02:45      2.82    0.19    0.30
  WS02003060WS02003069 CONDUIT    548.84     0  02:44      1.64    0.21    0.34
  WS02003066WSF200     CONDUIT    532.00     0  02:43      2.85    0.09    0.22
  WS02003067WS02003066 CONDUIT    531.85     0  02:43      1.20    0.17    0.41
  WS02003069WS02003072 CONDUIT    548.23     0  02:44      1.37    0.26    0.38
  WS02003072WS02003073 CONDUIT    547.55     0  02:45      1.43    1.18    0.37
  WS02004401WS02004402 CONDUIT    539.47     0  02:40      0.98    0.65    0.89
  WS02004402WS02004403 CONDUIT    538.60     0  02:40      0.97    0.77    0.91
  WS02004403WS02004404 CONDUIT    549.28     0  02:39      0.92    0.40    0.96
  WS02004404WS02004405 CONDUIT    598.39     0  02:40      1.08    5.86    0.98
  WS02004405WS02004406 CONDUIT    541.54     0  02:40      0.99    1.07    0.96
  WS02004406WS02004407 CONDUIT    536.85     0  02:41      1.04    0.24    0.63
  WS02004407WS02004409 CONDUIT    535.94     0  02:41      1.57    0.19    0.48
  WS02004409WS02004410 CONDUIT    533.80     0  02:42      1.05    0.69    0.67
  WS02004410WS02004411 CONDUIT    533.41     0  02:41      1.00    0.73    0.68
  WS02004411WS02004412 CONDUIT    532.54     0  02:42      0.97    0.76    0.69
  WS02004412WS02004413 CONDUIT    532.16     0  02:42      0.82    0.36    0.77
  WS02004413WS02003067 CONDUIT    531.59     0  02:43      1.10    0.23    0.59
  WS02006109WS02006110 CONDUIT    564.38     0  03:09      1.12    1.09    1.00
  WS02006110WS02006113 CONDUIT    589.99     0  03:09      1.42    0.54    0.79
  WS02006111WS02006112 CONDUIT    543.71     0  03:44      1.81    0.26    0.67
  WS02006112WS02006115 CONDUIT    552.02     0  03:09      0.88    0.33    0.88
  WS02006113WS02006111 CONDUIT    561.71     0  02:50      2.47    0.67    0.46
  WS02006115WS02006116 CONDUIT    540.89     0  01:59      1.15    0.69    0.78
  WS02006116WS02004401 CONDUIT    538.59     0  02:08      0.99    0.74    0.86
  WS02006228WS02006109 CONDUIT    558.80     0  02:07      1.11    2.44    1.00
  WS02006229WS02006228 CONDUIT    558.39     0  02:07      1.14    1.85    1.00
  WS02006230WS02006229 CONDUIT    557.88     0  02:07      1.45   12.42    1.00
  WS02006231WS02006230 CONDUIT    587.12     0  03:41      1.59    8.91    1.00
  WS02006232WS02006231 CONDUIT    575.76     0  03:14      1.50    1.21    1.00
  WS02006234WS02006232 CONDUIT    574.79     0  02:46      1.49    1.16    1.00
  WS02006235WS02006234 CONDUIT    569.99     0  02:46      1.48    6.01    1.00
  WS02006238WS02006235 CONDUIT    425.61     0  02:10      1.56    0.95    1.00
  WS02006239WS02006238 CONDUIT    425.64     0  02:10      1.11    1.36    1.00
  WS02006240WS02006239 CONDUIT    423.87     0  02:10      1.24    1.33    1.00
  WS02006242WS02006240 CONDUIT    420.88     0  02:20      1.13    1.67    1.00
  WS02006243WS02006242 CONDUIT    420.96     0  02:20      1.40    0.90    1.00
  WS02006245WS02006243 CONDUIT    420.97     0  02:20      1.45    1.25    1.00
  WS02006247WS02006245 CONDUIT    420.39     0  02:10      1.43    3.33    1.00
  WS02006248WS02006247 CONDUIT    420.89     0  02:10      1.44    0.92    1.00
  WS02006249WS02006248 CONDUIT    421.51     0  02:10      1.36    2.31    1.00
  WS02006251WS02006249 CONDUIT    459.02     0  00:00      1.99    1.32    1.00
  WS02006252WS02006251 CONDUIT    409.57     0  01:47     24.61    1.50    1.00
  WS02006256WS02006235 CONDUIT    289.22     0  01:40      4.23    3.06    1.00
  WSF200WS02003060     CONDUIT    532.73     0  02:43      2.06    0.12    0.28
  YS02001580YS02001583 CONDUIT    258.11     0  01:37      1.09    1.00    1.00
  YS02001583YS02001586 CONDUIT    262.21     0  01:37      1.15    0.40    1.00
  YS02001586YS02001590 CONDUIT    318.05     0  01:46      1.35    0.56    1.00
  YS02001590YS02001593 CONDUIT    318.01     0  01:46      1.12    2.00    1.00
  YS02001593YS02001596 CONDUIT    317.97     0  01:52      1.72    0.50    1.00
  YS02001596YS02001600 CONDUIT    318.00     0  01:50      1.19    0.62    1.00
  YS02001600YS02001601 CONDUIT    318.00     0  01:46      1.12    0.55    1.00
  YS02001601YS02001602 CONDUIT    594.89     0  01:37      2.10    2.15    1.00
  YS02001602YS02001605 CONDUIT    594.76     0  01:37      2.10   12.59    1.00
  YS02001605YS02001607 CONDUIT    594.65     0  01:37      2.10    3.26    1.00
  YS02001607YS02001610 CONDUIT    564.28     0  01:37      0.77    0.54    1.00
  YS02001610YS02001613 CONDUIT    531.57     0  01:37      0.72    0.61    1.00
  YS02001613YS02001616 CONDUIT    486.50     0  01:37      0.70    0.42    1.00
  YS02001616YS02001619 CONDUIT    475.16     0  02:07      0.67    0.82    1.00
  YS02001619YS02001622 CONDUIT    848.97     0  01:37      1.43    1.25    1.00
  YS02001622YS02001625 CONDUIT    832.77     0  01:41      1.06    0.44    1.00
  YS02001625YS02001629 CONDUIT    823.34     0  02:05      1.05    0.39    1.00
  YS02001629YS02163301 CONDUIT    829.45     0  02:05      1.06    1.02    1.00
  YS02001633YS02163601 CONDUIT   1336.66     0  01:38      1.70    1.40    1.00
  YS02001641YS02001644 CONDUIT   1332.97     0  01:38      1.70    4.31    1.00
  YS02001644YS02001647 CONDUIT   1840.34     0  01:38      2.34    1.08    1.00
  YS02001647YS02001649 CONDUIT   1851.00     0  01:38      2.36    0.98    1.00
  YS02001649YS02001757 CONDUIT   2166.55     0  01:39      2.76    1.31    1.00
  YS02001652YS02001649 CONDUIT    629.14     0  01:42      0.97    0.31    1.00
  YS02001655YS02001652 CONDUIT    628.76     0  01:42      1.79    0.31    1.00
  YS02001658YS02001655 CONDUIT    760.24     0  01:39      2.14    0.32    1.00
  YS02001661YS02001658 CONDUIT    743.84     0  01:48      2.44    0.29    0.91
  YS02001664YS02001661 CONDUIT    536.07     0  01:40      2.37    0.17    0.58
  YS02001745YS02001748 CONDUIT    615.90     0  01:43      2.33    0.24    0.74
  YS02001748YS02001751 CONDUIT    465.46     0  01:44      1.93    0.24    1.00
  YS02001751YS02001754 CONDUIT    453.98     0  01:41      1.79    0.22    1.00
  YS02001754YS02001757 CONDUIT    452.96     0  01:41      0.75    0.18    1.00
  YS02001757CaochengTiaoxuchi CONDUIT   3350.89     0  01:41      4.27    1.45    1.00
  YS02001759YS02001757 CONDUIT   1209.34     0  01:39      1.54    0.86    1.00
  YS02001762YS02001759 CONDUIT    711.29     0  01:39      0.91    0.82    1.00
  YS02001765YS02001762 CONDUIT    709.70     0  01:39      0.90    0.67    1.00
  YS02001767YS02001765 CONDUIT    709.40     0  01:39      0.93    0.89    1.00
  YS02001770YS02001767 CONDUIT    707.55     0  01:39      1.03    2.80    1.00
  YS02001774YS02001770 CONDUIT    495.13     0  01:39      0.63    0.32    1.00
  YS02001779YS02001774 CONDUIT    495.05     0  01:39      0.63    0.25    1.00
  YS02001783YS02001784 CONDUIT   1153.11     0  01:40      2.29    1.59    1.00
  YS02001784YS02001785 CONDUIT   1153.89     0  01:40      2.30    2.69    1.00
  YS02001786YS02001788 CONDUIT   1159.68     0  01:39      2.50    2.23    0.89
  YS02001788YS02001790 CONDUIT   1168.92     0  01:39      2.71    0.86    0.83
  YS02001790YS02001791 CONDUIT   1274.32     0  01:46      3.42    1.39    0.70
  YS02001791YS02001793 CONDUIT   1225.17     0  01:46      6.70    0.53    0.45
  YS02001793JiankangQianchi CONDUIT   1263.37     0  01:50      2.53    0.10    0.65
  YS02001882YS02001884 CONDUIT     77.91     0  01:37      0.14    0.09    1.00
  YS02001884YS02001887 CONDUIT    126.50     0  01:37      0.17    0.17    1.00
  YS02001887YS02001890 CONDUIT    590.65     0  01:38      0.75    1.01    1.00
  YS02001890YS02001895 CONDUIT    597.53     0  01:38      0.76    0.28    1.00
  YS02001895YS02001898 CONDUIT    603.25     0  01:38      0.77    1.05    1.00
  YS02001898YS02001901 CONDUIT    610.68     0  01:38      0.78    0.39    1.00
  YS02001901YS02001904 CONDUIT    613.18     0  01:38      0.78    0.95    1.00
  YS02001904YS02001907 CONDUIT    616.22     0  01:38      0.78    0.22    1.00
  YS02001907YS02006553 CONDUIT    789.73     0  01:53      0.88    0.93    1.00
  YS02001910YS02001907 CONDUIT   1027.14     0  01:40      1.31    0.58    1.00
  YS02001915YS02001910 CONDUIT   1027.38     0  01:40      1.31    0.51    1.00
  YS02001918YS02001915 CONDUIT    721.91     0  01:38      0.95    0.40    1.00
  YS02001920YS02001918 CONDUIT    606.81     0  01:38      0.77    0.59    1.00
  YS02001923YS02001920 CONDUIT    611.30     0  01:38      0.89    0.27    1.00
  YS02001926YS02001923 CONDUIT    885.72     0  01:39      1.34    1.26    1.00
  YS02001929YS02001926 CONDUIT    606.25     0  01:39      1.20    0.29    1.00
  YS02006553YS02006556 CONDUIT    790.17     0  01:54      1.01    0.68    1.00
  YS02006556YS02006558 CONDUIT    791.89     0  01:53      1.01    0.63    1.00
  YS02006558YS02006561 CONDUIT   1186.61     0  01:38      4.20    2.62    1.00
  YS02006561YS02001783 CONDUIT   1152.86     0  01:40      2.29    0.60    1.00
  YS02163301YS02001633 CONDUIT    828.61     0  02:05      1.06    0.78    1.00
  YS02163601YS02164001 CONDUIT   1334.17     0  01:38      1.70    1.18    1.00
  YS02164001YS02001641 CONDUIT   1331.12     0  01:38      1.69    1.82    1.00
  CC-R1                PUMP       683.00     0  00:00              1.00
  CC-R2                PUMP       683.00     0  00:00              1.00
  CC-S1                PUMP       200.00     0  00:00              1.00
  CC-S2                PUMP       200.00     0  00:00              1.00
  JK-R1                PUMP      1000.00     0  00:00              1.00
  JK-R2                PUMP      1000.00     0  00:00              1.00
  JK-S                 PUMP       300.00     0  00:00              1.00
  
  
  ***************************
  Flow Classification Summary
  ***************************
  
  -------------------------------------------------------------------------------------
                      Adjusted    ---------- Fraction of Time in Flow Class ---------- 
                       /Actual         Up    Down  Sub   Sup   Up    Down  Norm  Inlet 
  Conduit               Length    Dry  Dry   Dry   Crit  Crit  Crit  Crit  Ltd   Ctrl  
  -------------------------------------------------------------------------------------
  1                       1.00   0.00  0.00  0.00  0.00  1.00  0.00  0.00  0.52  0.00
  WS02003060WS02003069    1.00   0.00  0.00  0.00  0.99  0.01  0.00  0.00  0.74  0.00
  WS02003066WSF200        1.00   0.13  0.00  0.00  0.00  0.87  0.00  0.00  0.77  0.00
  WS02003067WS02003066    1.00   0.10  0.02  0.00  0.88  0.00  0.00  0.00  0.00  0.00
  WS02003069WS02003072    1.00   0.00  0.00  0.00  0.99  0.01  0.00  0.00  0.74  0.00
  WS02003072WS02003073    1.00   0.00  0.00  0.00  0.00  0.00  0.00  1.00  0.00  0.00
  WS02004401WS02004402    1.00   0.02  0.00  0.00  0.98  0.00  0.00  0.00  0.00  0.00
  WS02004402WS02004403    1.00   0.02  0.00  0.00  0.97  0.00  0.00  0.00  0.00  0.00
  WS02004403WS02004404    1.00   0.00  0.03  0.00  0.97  0.00  0.00  0.00  0.00  0.00
  WS02004404WS02004405    1.00   0.00  0.00  0.00  1.00  0.00  0.00  0.00  0.01  0.00
  WS02004405WS02004406    1.00   0.00  0.00  0.00  1.00  0.00  0.00  0.00  0.00  0.00
  WS02004406WS02004407    1.00   0.00  0.05  0.00  0.95  0.00  0.00  0.00  0.00  0.00
  WS02004407WS02004409    1.00   0.05  0.00  0.00  0.94  0.01  0.00  0.00  0.94  0.00
  WS02004409WS02004410    1.00   0.05  0.00  0.00  0.95  0.00  0.00  0.00  0.03  0.00
  WS02004410WS02004411    1.00   0.05  0.00  0.00  0.95  0.00  0.00  0.00  0.01  0.00
  WS02004411WS02004412    1.00   0.05  0.00  0.00  0.95  0.00  0.00  0.00  0.00  0.00
  WS02004412WS02004413    1.00   0.05  0.00  0.00  0.94  0.00  0.00  0.00  0.01  0.00
  WS02004413WS02003067    1.00   0.06  0.04  0.00  0.00  0.00  0.90  0.00  0.00  0.00
  WS02006109WS02006110    1.00   0.00  0.01  0.00  0.98  0.00  0.01  0.00  0.00  0.00
  WS02006110WS02006113    1.00   0.01  0.01  0.00  0.98  0.00  0.00  0.00  0.00  0.00
  WS02006111WS02006112    1.00   0.02  0.00  0.00  0.98  0.00  0.00  0.00  0.98  0.00
  WS02006112WS02006115    1.00   0.02  0.00  0.00  0.97  0.00  0.00  0.00  0.00  0.00
  WS02006113WS02006111    1.00   0.02  0.00  0.00  0.00  0.98  0.00  0.00  0.13  0.00
  WS02006115WS02006116    1.00   0.02  0.00  0.00  0.97  0.00  0.00  0.01  0.00  0.00
  WS02006116WS02004401    1.00   0.02  0.00  0.00  0.98  0.00  0.00  0.00  0.00  0.00
  WS02006228WS02006109    1.00   0.00  0.00  0.00  1.00  0.00  0.00  0.00  0.00  0.00
  WS02006229WS02006228    1.00   0.00  0.00  0.00  0.99  0.00  0.00  0.01  0.00  0.00
  WS02006230WS02006229    1.00   0.00  0.00  0.00  0.99  0.00  0.00  0.01  0.00  0.00
  WS02006231WS02006230    1.00   0.00  0.00  0.00  0.26  0.00  0.74  0.00  0.00  0.00
  WS02006232WS02006231    1.00   0.00  0.00  0.00  0.98  0.00  0.01  0.00  0.00  0.00
  WS02006234WS02006232    1.00   0.00  0.00  0.00  1.00  0.00  0.00  0.00  0.24  0.00
  WS02006235WS02006234    1.00   0.00  0.00  0.00  0.71  0.00  0.29  0.00  0.00  0.00
  WS02006238WS02006235    1.00   0.00  0.00  0.00  1.00  0.00  0.00  0.00  0.00  0.00
  WS02006239WS02006238    1.00   0.00  0.00  0.00  1.00  0.00  0.00  0.00  0.35  0.00
  WS02006240WS02006239    1.00   0.00  0.00  0.00  0.59  0.00  0.00  0.41  0.04  0.00
  WS02006242WS02006240    1.00   0.00  0.00  0.00  0.99  0.00  0.01  0.00  0.00  0.00
  WS02006243WS02006242    1.00   0.00  0.00  0.00  0.99  0.00  0.00  0.01  0.53  0.00
  WS02006245WS02006243    1.00   0.00  0.00  0.00  0.64  0.00  0.00  0.36  0.02  0.00
  WS02006247WS02006245    1.00   0.00  0.00  0.00  0.99  0.00  0.00  0.01  0.00  0.00
  WS02006248WS02006247    1.00   0.00  0.00  0.00  0.99  0.00  0.00  0.01  0.21  0.00
  WS02006249WS02006248    1.00   0.00  0.00  0.00  0.45  0.00  0.55  0.00  0.00  0.00
  WS02006251WS02006249    1.00   0.00  0.00  0.00  1.00  0.00  0.00  0.00  0.56  0.00
  WS02006252WS02006251    1.00   0.00  0.58  0.00  0.13  0.00  0.29  0.00  0.00  0.00
  WS02006256WS02006235    1.00   0.00  0.00  0.00  0.99  0.01  0.00  0.00  0.00  0.00
  WSF200WS02003060        1.00   0.00  0.13  0.00  0.35  0.53  0.00  0.00  0.52  0.00
  YS02001580YS02001583    1.00   0.20  0.63  0.00  0.17  0.00  0.00  0.00  0.72  0.00
  YS02001583YS02001586    1.00   0.45  0.32  0.00  0.23  0.00  0.00  0.00  0.72  0.00
  YS02001586YS02001590    1.00   0.13  0.00  0.00  0.38  0.04  0.00  0.45  0.34  0.00
  YS02001590YS02001593    1.00   0.13  0.01  0.00  0.09  0.00  0.77  0.00  0.00  0.00
  YS02001593YS02001596    1.00   0.14  0.00  0.00  0.10  0.01  0.00  0.75  0.02  0.00
  YS02001596YS02001600    1.00   0.14  0.00  0.00  0.17  0.02  0.00  0.67  0.06  0.00
  YS02001600YS02001601    1.00   0.13  0.01  0.00  0.86  0.00  0.00  0.00  0.63  0.00
  YS02001601YS02001602    1.00   0.13  0.01  0.00  0.86  0.00  0.00  0.00  0.00  0.00
  YS02001602YS02001605    1.00   0.14  0.00  0.00  0.86  0.00  0.00  0.00  0.00  0.00
  YS02001605YS02001607    1.00   0.14  0.00  0.00  0.86  0.00  0.00  0.00  0.00  0.00
  YS02001607YS02001610    1.00   0.13  0.01  0.00  0.86  0.00  0.00  0.00  0.02  0.00
  YS02001610YS02001613    1.00   0.13  0.00  0.00  0.87  0.00  0.00  0.00  0.01  0.00
  YS02001613YS02001616    1.00   0.13  0.00  0.00  0.87  0.00  0.00  0.00  0.01  0.00
  YS02001616YS02001619    1.00   0.13  0.00  0.00  0.87  0.00  0.00  0.00  0.00  0.00
  YS02001619YS02001622    1.00   0.13  0.00  0.00  0.87  0.00  0.00  0.00  0.31  0.00
  YS02001622YS02001625    1.00   0.13  0.00  0.00  0.87  0.00  0.00  0.00  0.05  0.00
  YS02001625YS02001629    1.00   0.13  0.05  0.00  0.13  0.00  0.69  0.00  0.00  0.00
  YS02001629YS02163301    1.00   0.16  0.01  0.00  0.83  0.00  0.00  0.00  0.00  0.00
  YS02001633YS02163601    1.00   0.00  0.01  0.00  0.99  0.00  0.00  0.00  0.15  0.00
  YS02001641YS02001644    1.00   0.00  0.01  0.00  0.99  0.00  0.00  0.00  0.00  0.00
  YS02001644YS02001647    1.00   0.00  0.18  0.00  0.82  0.00  0.00  0.00  0.00  0.00
  YS02001647YS02001649    1.00   0.00  0.18  0.00  0.54  0.29  0.00  0.00  0.58  0.00
  YS02001649YS02001757    1.00   0.00  0.00  0.00  0.92  0.08  0.00  0.00  0.45  0.00
  YS02001652YS02001649    1.00   0.00  0.00  0.00  0.96  0.04  0.00  0.00  0.74  0.00
  YS02001655YS02001652    1.00   0.00  0.00  0.00  0.16  0.02  0.00  0.81  0.08  0.00
  YS02001658YS02001655    1.00   0.00  0.15  0.00  0.64  0.21  0.00  0.00  0.73  0.00
  YS02001661YS02001658    1.00   0.15  0.00  0.00  0.48  0.37  0.00  0.00  0.75  0.00
  YS02001664YS02001661    1.00   0.13  0.00  0.00  0.78  0.09  0.00  0.00  0.86  0.00
  YS02001745YS02001748    1.00   0.00  0.00  0.00  0.07  0.01  0.00  0.92  0.05  0.00
  YS02001748YS02001751    1.00   0.00  0.00  0.00  0.82  0.18  0.00  0.00  0.79  0.00
  YS02001751YS02001754    1.00   0.00  0.00  0.00  0.14  0.00  0.00  0.86  0.04  0.00
  YS02001754YS02001757    1.00   0.00  0.00  0.00  1.00  0.00  0.00  0.00  0.81  0.00
  YS02001757CaochengTiaoxuchi    1.00   0.00  0.00  0.00  1.00  0.00  0.00  0.00  0.53  0.00
  YS02001759YS02001757    1.00   0.00  0.00  0.00  1.00  0.00  0.00  0.00  0.53  0.00
  YS02001762YS02001759    1.00   0.00  0.00  0.00  1.00  0.00  0.00  0.00  0.06  0.00
  YS02001765YS02001762    1.00   0.00  0.00  0.00  1.00  0.00  0.00  0.00  0.69  0.00
  YS02001767YS02001765    1.00   0.00  0.00  0.00  1.00  0.00  0.00  0.00  0.01  0.00
  YS02001770YS02001767    1.00   0.00  0.00  0.00  1.00  0.00  0.00  0.00  0.00  0.00
  YS02001774YS02001770    1.00   0.00  0.14  0.00  0.68  0.00  0.18  0.00  0.03  0.00
  YS02001779YS02001774    1.00   0.00  0.00  0.00  1.00  0.00  0.00  0.00  0.80  0.00
  YS02001783YS02001784    1.00   0.00  0.18  0.00  0.82  0.00  0.00  0.00  0.57  0.00
  YS02001784YS02001785    1.00   0.00  0.00  0.00  1.00  0.00  0.00  0.00  0.17  0.00
  YS02001786YS02001788    1.00   0.00  0.00  0.00  0.79  0.21  0.00  0.00  0.00  0.00
  YS02001788YS02001790    1.00   0.00  0.00  0.00  0.21  0.79  0.00  0.00  0.85  0.00
  YS02001790YS02001791    1.00   0.00  0.00  0.00  0.01  0.99  0.00  0.00  0.16  0.00
  YS02001791YS02001793    1.00   0.00  0.00  0.00  0.00  1.00  0.00  0.00  0.01  0.00
  YS02001793JiankangQianchi    1.00   0.00  0.00  0.00  0.99  0.01  0.00  0.00  0.97  0.00
  YS02001882YS02001884    1.00   0.16  0.01  0.00  0.83  0.00  0.00  0.00  0.00  0.00
  YS02001884YS02001887    1.00   0.06  0.05  0.00  0.89  0.00  0.00  0.00  0.00  0.00
  YS02001887YS02001890    1.00   0.00  0.00  0.00  0.97  0.00  0.03  0.00  0.00  0.00
  YS02001890YS02001895    1.00   0.00  0.17  0.00  0.83  0.00  0.00  0.00  0.00  0.00
  YS02001895YS02001898    1.00   0.17  0.00  0.00  0.82  0.00  0.01  0.00  0.00  0.00
  YS02001898YS02001901    1.00   0.17  0.00  0.00  0.83  0.00  0.00  0.00  0.01  0.00
  YS02001901YS02001904    1.00   0.17  0.00  0.00  0.83  0.00  0.00  0.00  0.00  0.00
  YS02001904YS02001907    1.00   0.00  0.17  0.00  0.83  0.00  0.00  0.00  0.00  0.00
  YS02001907YS02006553    1.00   0.00  0.02  0.00  0.98  0.00  0.00  0.00  0.00  0.00
  YS02001910YS02001907    1.00   0.00  0.00  0.00  0.97  0.00  0.00  0.03  0.12  0.00
  YS02001915YS02001910    1.00   0.00  0.00  0.00  0.96  0.04  0.00  0.00  0.16  0.00
  YS02001918YS02001915    1.00   0.00  0.01  0.00  0.98  0.02  0.00  0.00  0.77  0.00
  YS02001920YS02001918    1.00   0.00  0.01  0.00  0.99  0.00  0.00  0.00  0.00  0.00
  YS02001923YS02001920    1.00   0.00  0.00  0.00  1.00  0.00  0.00  0.00  0.94  0.00
  YS02001926YS02001923    1.00   0.00  0.07  0.00  0.05  0.00  0.88  0.00  0.00  0.00
  YS02001929YS02001926    1.00   0.00  0.13  0.00  0.87  0.00  0.00  0.00  0.83  0.00
  YS02006553YS02006556    1.00   0.01  0.00  0.00  0.99  0.00  0.00  0.00  0.03  0.00
  YS02006556YS02006558    1.00   0.00  0.00  0.00  1.00  0.00  0.00  0.00  0.00  0.00
  YS02006558YS02006561    1.00   0.18  0.00  0.00  0.04  0.78  0.00  0.00  0.20  0.00
  YS02006561YS02001783    1.00   0.18  0.00  0.00  0.07  0.75  0.00  0.00  0.71  0.00
  YS02163301YS02001633    1.00   0.00  0.16  0.00  0.84  0.00  0.00  0.00  0.00  0.00
  YS02163601YS02164001    1.00   0.00  0.08  0.00  0.92  0.00  0.00  0.00  0.00  0.00
  YS02164001YS02001641    1.00   0.01  0.07  0.00  0.92  0.00  0.00  0.00  0.06  0.00
  
  
  *************************
  Conduit Surcharge Summary
  *************************
  
  ----------------------------------------------------------------------------
                                                           Hours        Hours 
                         --------- Hours Full --------   Above Full   Capacity
  Conduit                Both Ends  Upstream  Dnstream   Normal Flow   Limited
  ----------------------------------------------------------------------------
  WS02003072WS02003073        0.01      0.01      0.01      1.55         0.01
  WS02004403WS02004404        0.01      0.01      0.01      0.01         0.01
  WS02004404WS02004405        0.01      0.01      0.01      3.36         0.01
  WS02004405WS02004406        0.01      0.01      0.01      0.55         0.01
  WS02006109WS02006110        0.63      0.63      2.02      0.85         0.01
  WS02006110WS02006113        0.01      0.01      2.01      0.01         0.01
  WS02006111WS02006112        0.01      0.01      2.16      0.01         0.01
  WS02006112WS02006115        0.01      0.01      1.00      0.01         0.01
  WS02006228WS02006109        1.99      2.02      1.99      2.22         1.98
  WS02006229WS02006228        1.99      1.99      1.99      2.09         1.97
  WS02006230WS02006229        2.04      2.07      2.04      4.10         2.04
  WS02006231WS02006230        0.64      0.64      0.98      3.68         0.01
  WS02006232WS02006231        0.88      0.88      2.02      1.01         0.01
  WS02006234WS02006232        1.92      1.92      2.02      0.98         0.97
  WS02006235WS02006234        1.47      1.48      1.93      3.54         0.03
  WS02006238WS02006235        1.95      1.95      2.02      0.01         0.01
  WS02006239WS02006238        1.99      2.02      1.99      2.04         1.74
  WS02006240WS02006239        1.95      2.00      1.95      2.04         1.65
  WS02006242WS02006240        1.99      1.99      2.03      2.15         0.01
  WS02006243WS02006242        1.99      1.99      2.01      0.01         0.08
  WS02006245WS02006243        1.99      1.99      1.99      1.34         1.27
  WS02006247WS02006245        1.99      1.99      1.99      3.31         1.97
  WS02006248WS02006247        1.98      1.98      1.99      0.01         0.08
  WS02006249WS02006248        1.98      1.98      1.98      3.28         0.01
  WS02006251WS02006249        1.98      1.98      1.98      2.08         1.85
  WS02006252WS02006251        2.13      2.13      2.13      2.13         0.01
  WS02006256WS02006235        3.52      3.58      5.12      1.26         0.01
  YS02001580YS02001583        0.41      0.42      0.47      0.01         0.01
  YS02001583YS02001586        0.42      0.42      0.57      0.01         0.01
  YS02001586YS02001590        0.58      0.58      0.64      0.01         0.01
  YS02001590YS02001593        0.64      0.64      0.65      0.69         0.01
  YS02001593YS02001596        0.64      0.64      0.72      0.01         0.01
  YS02001596YS02001600        0.75      0.75      0.84      0.01         0.01
  YS02001600YS02001601        0.89      0.89      1.19      0.01         0.01
  YS02001601YS02001602        1.06      1.06      1.24      0.85         0.01
  YS02001602YS02001605        1.01      1.01      1.06      1.99         0.01
  YS02001605YS02001607        0.97      1.01      0.97      1.13         0.97
  YS02001607YS02001610        0.60      0.60      0.62      0.01         0.01
  YS02001610YS02001613        0.59      0.59      0.62      0.01         0.01
  YS02001613YS02001616        0.56      0.56      0.59      0.01         0.01
  YS02001616YS02001619        0.54      0.54      0.56      0.01         0.01
  YS02001619YS02001622        0.54      0.54      0.54      0.67         0.50
  YS02001622YS02001625        0.54      0.54      0.70      0.01         0.01
  YS02001625YS02001629        0.49      0.49      0.70      0.01         0.01
  YS02001629YS02163301        0.69      0.69      0.70      0.12         0.15
  YS02001633YS02163601        0.72      0.72      0.74      0.37         0.36
  YS02001641YS02001644        0.64      0.66      0.64      1.30         0.64
  YS02001644YS02001647        0.46      0.46      0.64      0.03         0.01
  YS02001647YS02001649        0.46      0.46      0.57      0.01         0.01
  YS02001649YS02001757        0.57      0.57      0.63      0.23         0.19
  YS02001652YS02001649        0.40      0.40      0.57      0.01         0.01
  YS02001655YS02001652        0.20      0.20      0.38      0.01         0.01
  YS02001658YS02001655        0.03      0.03      0.20      0.01         0.01
  YS02001661YS02001658        0.01      0.01      0.03      0.01         0.01
  YS02001745YS02001748        0.01      0.01      0.01      0.01         0.01
  YS02001748YS02001751        0.01      0.01      0.08      0.01         0.01
  YS02001751YS02001754        0.08      0.08      0.27      0.01         0.01
  YS02001754YS02001757        0.32      0.32      0.63      0.01         0.01
  YS02001757CaochengTiaoxuchi        0.57      0.63      2.05      0.27         0.20
  YS02001759YS02001757        0.53      0.53      0.63      0.01         0.01
  YS02001762YS02001759        0.50      0.50      0.53      0.01         0.02
  YS02001765YS02001762        0.44      0.44      0.50      0.01         0.01
  YS02001767YS02001765        0.42      0.42      0.44      0.01         0.02
  YS02001770YS02001767        0.41      0.42      0.42      0.39         0.28
  YS02001774YS02001770        0.38      0.38      0.48      0.01         0.01
  YS02001779YS02001774        0.27      0.27      0.48      0.01         0.01
  YS02001783YS02001784        0.40      0.42      0.40      0.53         0.40
  YS02001784YS02001785        0.31      0.40      0.31      0.71         0.31
  YS02001786YS02001788        0.01      0.31      0.01      0.60         0.01
  YS02001790YS02001791        0.01      0.01      0.01      0.39         0.01
  YS02001793JiankangQianchi        0.01      0.01      7.70      0.01         0.01
  YS02001882YS02001884        0.37      0.37      0.38      0.01         0.01
  YS02001884YS02001887        0.40      0.40      0.41      0.01         0.01
  YS02001887YS02001890        0.42      0.42      0.43      0.01         0.01
  YS02001890YS02001895        0.36      0.36      0.45      0.01         0.01
  YS02001895YS02001898        0.35      0.35      0.36      0.01         0.01
  YS02001898YS02001901        0.36      0.36      0.40      0.01         0.01
  YS02001901YS02001904        0.39      0.39      0.40      0.01         0.01
  YS02001904YS02001907        0.39      0.39      0.58      0.01         0.01
  YS02001907YS02006553        0.72      0.72      0.78      0.01         0.01
  YS02001910YS02001907        0.44      0.44      0.57      0.01         0.01
  YS02001915YS02001910        0.37      0.37      0.44      0.01         0.01
  YS02001918YS02001915        0.29      0.29      0.37      0.01         0.01
  YS02001920YS02001918        0.29      0.29      0.30      0.01         0.01
  YS02001923YS02001920        0.25      0.25      0.30      0.01         0.01
  YS02001926YS02001923        0.01      0.01      0.01      0.01         0.01
  YS02001929YS02001926        0.01      0.01      0.01      0.01         0.01
  YS02006553YS02006556        0.51      0.51      0.59      0.01         0.01
  YS02006556YS02006558        0.55      0.55      0.60      0.01         0.01
  YS02006558YS02006561        0.32      0.50      0.32      0.67         0.32
  YS02006561YS02001783        0.25      0.25      0.42      0.01         0.01
  YS02163301YS02001633        0.70      0.70      0.73      0.01         0.01
  YS02163601YS02164001        0.67      0.67      0.74      0.03         0.01
  YS02164001YS02001641        0.66      0.67      0.66      0.71         0.61
  
  
  ***************
  Pumping Summary
  ***************
  
  ---------------------------------------------------------------------------------------------------------
                                                  Min       Avg       Max     Total     Power    % Time Off
                        Percent   Number of      Flow      Flow      Flow    Volume     Usage    Pump Curve
  Pump                 Utilized   Start-Ups       LPS       LPS       LPS  10^6 ltr     Kw-hr    Low   High
  ---------------------------------------------------------------------------------------------------------
  CC-R1                   14.89           3      0.00    683.00    683.00     2.930     54.53    0.0    7.0
  CC-R2                    8.92           3      0.00    683.00    683.00     1.755     32.84    0.0   11.7
  CC-S1                   41.84           3      0.00    200.00    200.00     2.410     14.12    0.0    0.0
  CC-S2                   26.64           2      0.00    200.00    200.00     1.534      8.87    0.0    0.0
  JK-R1                    6.08          10      0.00   1000.00   1000.00     1.751     20.37    0.0    0.0
  JK-R2                    0.73           2      0.00   1000.00   1000.00     0.212      1.79    0.0    0.0
  JK-S                    15.72          25      0.00    300.00    300.00     1.358     17.68    0.0    0.0
  

  Analysis begun on:  Tue Apr 15 14:17:48 2025
  Analysis ended on:  Tue Apr 15 14:17:50 2025
  Total elapsed time: 00:00:02