
  EPA STORM WATER MANAGEMENT MODEL - VERSION 5.2 (Build 5.2.4)
  PYSWMM TOOLKIT API - VERSION v1.0 (2023-11-27)
  ------------------------------------------------------------

  WARNING 04: minimum elevation drop used for Conduit WS02004404WS02004405
  WARNING 03: negative offset ignored for Link YS02001904YS02001907
  
  ****************
  Analysis Options
  ****************
  Flow Units ............... LPS
  Process Models:
    Rainfall/Runoff ........ YES
    RDII ................... NO
    Snowmelt ............... NO
    Groundwater ............ NO
    Flow Routing ........... YES
    Ponding Allowed ........ NO
    Water Quality .......... NO
  Infiltration Method ...... HORTON
  Flow Routing Method ...... DYNWAVE
  Surcharge Method ......... EXTRAN
  Starting Date ............ 08/28/2015 08:00:00
  Ending Date .............. 08/28/2015 16:00:00
  Antecedent Dry Days ...... 8.0
  Report Time Step ......... 00:01:00
  Wet Time Step ............ 00:01:00
  Dry Time Step ............ 00:01:00
  Routing Time Step ........ 30.00 sec
  Variable Time Step ....... YES
  Maximum Trials ........... 8
  Number of Threads ........ 4
  Head Tolerance ........... 0.001500 m
  
  
  **************************        Volume         Depth
  Runoff Quantity Continuity     hectare-m            mm
  **************************     ---------       -------
  Total Precipitation ......         2.049        61.780
  Evaporation Loss .........         0.000         0.000
  Infiltration Loss ........         0.101         3.034
  Surface Runoff ...........         1.916        57.761
  Final Storage ............         0.033         0.995
  Continuity Error (%) .....        -0.017
  
  
  **************************        Volume        Volume
  Flow Routing Continuity        hectare-m      10^6 ltr
  **************************     ---------     ---------
  Dry Weather Inflow .......         0.025         0.251
  Wet Weather Inflow .......         1.916        19.158
  Groundwater Inflow .......         0.000         0.000
  RDII Inflow ..............         0.000         0.000
  External Inflow ..........         0.083         0.834
  External Outflow .........         1.481        14.809
  Flooding Loss ............         0.523         5.225
  Evaporation Loss .........         0.000         0.000
  Exfiltration Loss ........         0.000         0.000
  Initial Stored Volume ....         0.243         2.431
  Final Stored Volume ......         0.270         2.695
  Continuity Error (%) .....        -0.250
  
  
  *************************
  Highest Continuity Errors
  *************************
  Node YS02001884 (5.27%)
  Node YS02001583 (-4.13%)
  
  
  ***************************
  Time-Step Critical Elements
  ***************************
  Link WS02006252WS02006251 (42.31%)
  Link WS02004404WS02004405 (15.70%)
  Link WS02006238WS02006235 (11.90%)
  Link YS02001791YS02001793 (8.52%)
  Link WS02006235WS02006234 (6.42%)
  
  
  ********************************
  Highest Flow Instability Indexes
  ********************************
  Link WS02006113WS02006111 (48)
  Link WS02006111WS02006112 (24)
  Link WS02004404WS02004405 (20)
  Link WS02004403WS02004404 (18)
  Link WS02004405WS02004406 (16)
  
  
  *********************************
  Most Frequent Nonconverging Nodes
  *********************************
  Node CC-1 (11.55%)
  Node CC-2 (11.55%)
  Node JK-1 (11.55%)
  Node JK-2 (11.55%)
  Node WSC (11.55%)
  
  
  *************************
  Routing Time Step Summary
  *************************
  Minimum Time Step           :     0.01 sec
  Average Time Step           :     2.11 sec
  Maximum Time Step           :     7.04 sec
  % of Time in Steady State   :     0.00
  Average Iterations per Step :     3.04
  % of Steps Not Converging   :    11.55
  Time Step Frequencies       :
     30.000 - 13.228 sec      :     0.00 %
     13.228 -  5.833 sec      :     9.11 %
      5.833 -  2.572 sec      :    21.26 %
      2.572 -  1.134 sec      :    21.72 %
      1.134 -  0.500 sec      :    47.91 %
  
  
  ***************************
  Subcatchment Runoff Summary
  ***************************
  
  ------------------------------------------------------------------------------------------------------------------------------
                            Total      Total      Total      Total     Imperv       Perv      Total       Total     Peak  Runoff
                           Precip      Runon       Evap      Infil     Runoff     Runoff     Runoff      Runoff   Runoff   Coeff
  Subcatchment                 mm         mm         mm         mm         mm         mm         mm    10^6 ltr      LPS
  ------------------------------------------------------------------------------------------------------------------------------
  sub60                     61.78       0.00       0.00       1.82      53.16       5.60      58.76        0.77   486.69   0.951
  sub61                     61.78       0.00       0.00       2.63      50.14       7.87      58.01        1.06   676.50   0.939
  sub62                     61.78       0.00       0.00       1.21      55.55       3.73      59.28        1.62   957.01   0.960
  sub63                     61.78       0.00       0.00       4.88      42.89      13.04      55.93        1.27   766.30   0.905
  sub64                     61.78       0.00       0.00       2.46      51.30       6.80      58.11        1.40   788.91   0.941
  sub65                     61.78       0.00       0.00       2.13      52.49       5.90      58.39        1.61   883.54   0.945
  sub66                     61.78       0.00       0.00       6.05      42.78      11.87      54.65        2.55  1178.60   0.885
  sub67                     61.78       0.00       0.00       1.16      55.59       3.78      59.37        1.10   729.69   0.961
  sub68                     61.78       0.00       0.00       2.18      51.94       6.47      58.41        1.61   977.33   0.945
  sub69                     61.78       0.00       0.00       1.96      52.40       7.31      59.71        2.21  1174.92   0.967
  sub70                     61.78       0.00       0.00       6.53      40.61      14.48      55.09        1.59   663.62   0.892
  sub71                     61.78       0.00       0.00       1.24      55.51       3.70      59.21        1.55   853.31   0.958
  sub72                     61.78       0.00       0.00       1.11      56.05       3.22      59.27        0.81   415.17   0.959
  
  
  ******************
  Node Depth Summary
  ******************
  
  ---------------------------------------------------------------------------------
                                 Average  Maximum  Maximum  Time of Max    Reported
                                   Depth    Depth      HGL   Occurrence   Max Depth
  Node                 Type       Meters   Meters   Meters  days hr:min      Meters
  ---------------------------------------------------------------------------------
  WS02003060           JUNCTION     0.24     0.38     5.32     0  02:37        0.38
  WS02003066           JUNCTION     0.20     0.30     5.85     0  02:37        0.30
  WS02003067           JUNCTION     0.50     0.70     6.02     0  02:36        0.70
  WS02003069           JUNCTION     0.26     0.43     5.01     0  02:38        0.43
  WS02003072           JUNCTION     0.33     0.50     4.87     0  02:39        0.50
  WS02003073           JUNCTION     0.19     0.30     4.36     0  02:39        0.30
  WS02004401           JUNCTION     0.60     0.88     6.88     0  02:35        0.88
  WS02004402           JUNCTION     0.63     0.90     6.86     0  02:36        0.90
  WS02004403           JUNCTION     0.65     0.92     6.85     0  02:34        0.92
  WS02004404           JUNCTION     0.73     1.04     6.89     0  02:33        1.00
  WS02004405           JUNCTION     0.72     0.97     6.82     0  02:35        0.97
  WS02004406           JUNCTION     0.73     0.96     6.79     0  02:35        0.96
  WS02004407           JUNCTION     0.18     0.30     6.61     0  02:35        0.30
  WS02004409           JUNCTION     0.39     0.67     6.44     0  02:35        0.67
  WS02004410           JUNCTION     0.42     0.68     6.40     0  02:35        0.68
  WS02004411           JUNCTION     0.44     0.69     6.37     0  02:36        0.69
  WS02004412           JUNCTION     0.46     0.70     6.34     0  02:36        0.70
  WS02004413           JUNCTION     0.62     0.86     6.33     0  02:36        0.86
  WS02006109           JUNCTION     0.65     1.24     7.85     0  02:50        1.18
  WS02006110           JUNCTION     0.65     1.33     7.92     0  02:50        1.01
  WS02006111           JUNCTION     0.18     0.29     6.99     0  02:53        0.29
  WS02006112           JUNCTION     0.75     1.10     6.98     0  03:19        1.07
  WS02006113           JUNCTION     0.27     0.46     7.35     0  03:14        0.46
  WS02006115           JUNCTION     0.48     0.77     6.91     0  02:35        0.77
  WS02006116           JUNCTION     0.57     0.85     6.89     0  02:35        0.85
  WS02006228           JUNCTION     0.64     1.46     8.11     0  02:50        1.20
  WS02006229           JUNCTION     0.61     1.53     8.22     0  02:50        1.15
  WS02006230           JUNCTION     0.61     1.88     8.63     0  02:50        1.26
  WS02006231           JUNCTION     0.41     1.38     8.51     0  02:50        1.01
  WS02006232           JUNCTION     0.54     1.49     8.53     0  02:50        1.21
  WS02006234           JUNCTION     0.46     1.42     8.58     0  02:20        1.33
  WS02006235           JUNCTION     0.50     1.50     8.66     0  02:25        1.38
  WS02006238           JUNCTION     0.53     1.54     8.69     0  02:25        1.39
  WS02006239           JUNCTION     0.50     1.50     8.71     0  02:25        1.36
  WS02006240           JUNCTION     0.47     1.46     8.76     0  02:25        1.35
  WS02006242           JUNCTION     0.54     1.50     8.77     0  02:25        1.42
  WS02006243           JUNCTION     0.45     1.34     8.76     0  02:25        1.29
  WS02006245           JUNCTION     0.45     1.34     8.83     0  03:20        1.34
  WS02006247           JUNCTION     0.47     1.32     8.82     0  03:20        1.32
  WS02006248           JUNCTION     0.44     1.10     8.69     0  02:16        1.10
  WS02006249           JUNCTION     0.47     1.09     8.69     0  02:06        1.09
  WS02006251           JUNCTION     0.47     1.50     9.17     0  03:24        1.50
  WS02006252           JUNCTION     0.34     1.50     9.74     0  00:00        1.08
  WS02006256           JUNCTION     0.91     2.35     9.28     0  00:00        2.35
  WSF200               JUNCTION     0.17     0.29     5.52     0  02:37        0.29
  YS02001580           JUNCTION     0.08     1.05     9.59     0  02:03        0.77
  YS02001583           JUNCTION     0.12     1.06     9.56     0  02:03        0.82
  YS02001586           JUNCTION     0.18     1.13     9.30     0  02:03        1.13
  YS02001590           JUNCTION     0.28     1.40     9.26     0  02:03        1.38
  YS02001593           JUNCTION     0.21     1.34     9.20     0  02:03        1.34
  YS02001596           JUNCTION     0.29     1.68     9.10     0  02:03        1.67
  YS02001600           JUNCTION     0.35     1.87     9.00     0  02:01        1.87
  YS02001601           JUNCTION     0.54     2.06     8.90     0  02:01        2.06
  YS02001602           JUNCTION     0.45     1.87     8.77     0  02:02        1.87
  YS02001605           JUNCTION     0.42     1.78     8.68     0  02:37        1.78
  YS02001607           JUNCTION     0.42     1.65     8.49     0  02:17        1.64
  YS02001610           JUNCTION     0.46     1.68     8.48     0  02:06        1.68
  YS02001613           JUNCTION     0.42     1.67     8.51     0  02:09        1.67
  YS02001616           JUNCTION     0.35     1.61     8.52     0  02:06        1.61
  YS02001619           JUNCTION     0.33     1.61     8.54     0  02:06        1.61
  YS02001622           JUNCTION     0.31     1.58     8.49     0  02:09        1.58
  YS02001625           JUNCTION     0.59     1.78     8.38     0  02:06        1.78
  YS02001629           JUNCTION     0.43     1.85     8.40     0  02:08        1.85
  YS02001633           JUNCTION     0.51     2.01     8.46     0  02:09        2.00
  YS02001641           JUNCTION     0.50     1.95     8.39     0  02:09        1.94
  YS02001644           JUNCTION     0.49     1.92     8.35     0  02:09        1.92
  YS02001647           JUNCTION     0.28     1.77     8.38     0  02:10        1.75
  YS02001649           JUNCTION     0.32     2.02     8.41     0  02:10        1.97
  YS02001652           JUNCTION     0.22     1.85     8.45     0  02:13        1.85
  YS02001655           JUNCTION     0.17     1.67     8.52     0  02:13        1.67
  YS02001658           JUNCTION     0.12     1.53     8.67     0  02:09        1.44
  YS02001661           JUNCTION     0.15     1.20     8.60     0  02:13        1.20
  YS02001664           JUNCTION     0.05     0.49     8.41     0  02:12        0.46
  YS02001745           JUNCTION     0.06     0.75     8.27     0  02:13        0.75
  YS02001748           JUNCTION     0.11     2.27     9.35     0  02:10        1.19
  YS02001751           JUNCTION     0.14     2.12     9.00     0  02:10        1.38
  YS02001754           JUNCTION     0.19     1.98     8.59     0  02:10        1.64
  YS02001757           JUNCTION     0.36     2.11     8.37     0  02:10        1.98
  YS02001759           JUNCTION     0.29     2.05     8.41     0  02:10        1.96
  YS02001762           JUNCTION     0.28     2.01     8.41     0  02:10        1.94
  YS02001765           JUNCTION     0.26     1.98     8.43     0  02:10        1.91
  YS02001767           JUNCTION     0.26     1.94     8.43     0  02:10        1.87
  YS02001770           JUNCTION     0.27     1.95     8.44     0  02:07        1.91
  YS02001774           JUNCTION     0.33     2.05     8.47     0  02:07        1.97
  YS02001779           JUNCTION     0.18     1.68     8.37     0  02:07        1.68
  YS02001783           JUNCTION     0.23     1.35     7.49     0  02:07        1.22
  YS02001784           JUNCTION     0.24     1.17     7.24     0  02:07        1.11
  YS02001786           JUNCTION     0.20     0.93     6.96     0  02:07        0.87
  YS02001788           JUNCTION     0.14     0.62     6.60     0  02:13        0.62
  YS02001790           JUNCTION     0.17     0.73     6.37     0  02:13        0.72
  YS02001791           JUNCTION     0.11     0.44     5.91     0  02:13        0.44
  YS02001793           JUNCTION     0.06     0.30     5.13     0  02:25        0.29
  YS02001882           JUNCTION     0.29     1.69     8.41     0  02:07        1.64
  YS02001884           JUNCTION     0.38     1.78     8.40     0  02:07        1.76
  YS02001887           JUNCTION     0.46     1.85     8.38     0  02:09        1.85
  YS02001890           JUNCTION     0.49     1.81     8.32     0  02:07        1.81
  YS02001895           JUNCTION     0.26     1.58     8.33     0  02:07        1.56
  YS02001898           JUNCTION     0.27     1.59     8.33     0  02:07        1.56
  YS02001901           JUNCTION     0.38     1.70     8.31     0  02:07        1.67
  YS02001904           JUNCTION     0.36     1.65     8.28     0  02:07        1.64
  YS02001907           JUNCTION     0.69     1.96     8.25     0  02:07        1.96
  YS02001910           JUNCTION     0.48     1.97     8.47     0  02:08        1.85
  YS02001915           JUNCTION     0.29     1.91     8.63     0  02:08        1.73
  YS02001918           JUNCTION     0.15     1.81     8.88     0  02:08        1.41
  YS02001920           JUNCTION     0.23     2.13     9.14     0  02:08        1.49
  YS02001923           JUNCTION     0.12     2.03     9.29     0  02:08        1.25
  YS02001926           JUNCTION     0.15     1.90     9.35     0  02:08        1.09
  YS02001929           JUNCTION     0.08     1.78     9.47     0  02:08        0.86
  YS02006553           JUNCTION     0.69     1.99     8.27     0  02:07        1.97
  YS02006556           JUNCTION     0.66     1.99     8.30     0  02:07        1.95
  YS02006558           JUNCTION     0.70     2.05     8.32     0  02:07        2.01
  YS02006561           JUNCTION     0.14     1.08     7.74     0  02:07        0.89
  YS02163301           JUNCTION     0.46     1.92     8.43     0  02:09        1.91
  YS02163601           JUNCTION     0.55     2.03     8.43     0  02:09        2.02
  YS02164001           JUNCTION     0.48     1.95     8.41     0  02:09        1.94
  CC-1                 OUTFALL      0.00     0.00     0.00     0  00:00        0.00
  CC-2                 OUTFALL      0.00     0.00     0.00     0  00:00        0.00
  JK-1                 OUTFALL      0.00     0.00     0.00     0  00:00        0.00
  JK-2                 OUTFALL      0.00     0.00     0.00     0  00:00        0.00
  WSC                  OUTFALL      0.19     0.30     0.97     0  02:40        0.30
  CC-storage           STORAGE      0.97     1.66     7.16     0  02:38        1.66
  JK-storage           STORAGE      3.05     4.24     5.04     0  02:20        4.18
  
  
  *******************
  Node Inflow Summary
  *******************
  
  -------------------------------------------------------------------------------------------------
                                  Maximum  Maximum                  Lateral       Total        Flow
                                  Lateral    Total  Time of Max      Inflow      Inflow     Balance
                                   Inflow   Inflow   Occurrence      Volume      Volume       Error
  Node                 Type           LPS      LPS  days hr:min    10^6 ltr    10^6 ltr     Percent
  -------------------------------------------------------------------------------------------------
  WS02003060           JUNCTION     16.53   555.08     0  02:37       0.476        5.24       0.047
  WS02003066           JUNCTION      0.00   537.97     0  02:37           0        4.77       0.032
  WS02003067           JUNCTION      0.00   537.79     0  02:36           0        4.77       0.092
  WS02003069           JUNCTION      0.32   555.01     0  02:38     0.00922        5.25       0.075
  WS02003072           JUNCTION      0.00   554.33     0  02:38           0        5.24       0.124
  WS02003073           JUNCTION      1.82   555.86     0  02:39      0.0524        5.29       0.095
  WS02004401           JUNCTION      0.00   540.52     0  02:34           0        4.88       0.239
  WS02004402           JUNCTION      0.00   540.12     0  02:33           0        4.87       0.240
  WS02004403           JUNCTION      0.00   539.39     0  02:33           0        4.86       0.230
  WS02004404           JUNCTION      0.16   562.46     0  02:34     0.00467        4.85       0.206
  WS02004405           JUNCTION      0.04   611.07     0  02:34      0.0011        4.84       0.211
  WS02004406           JUNCTION      0.00   545.06     0  02:35           0        4.83       0.467
  WS02004407           JUNCTION      0.00   540.23     0  02:35           0        4.81       0.042
  WS02004409           JUNCTION      0.00   539.53     0  02:35           0        4.81       0.078
  WS02004410           JUNCTION      0.00   539.03     0  02:35           0        4.81       0.110
  WS02004411           JUNCTION      0.00   538.53     0  02:35           0         4.8       0.133
  WS02004412           JUNCTION      0.00   538.44     0  02:36           0        4.79       0.171
  WS02004413           JUNCTION      0.00   538.39     0  02:36           0        4.79       0.296
  WS02006109           JUNCTION      1.23   563.28     0  02:50      0.0354        4.94       0.224
  WS02006110           JUNCTION      0.00   562.37     0  02:50           0        4.93       0.183
  WS02006111           JUNCTION      0.00   561.82     0  02:52           0        4.92       0.032
  WS02006112           JUNCTION      0.00   542.67     0  02:32           0        4.92       0.385
  WS02006113           JUNCTION      0.00   569.01     0  02:51           0        4.92       0.061
  WS02006115           JUNCTION      0.00   549.50     0  03:34           0         4.9       0.168
  WS02006116           JUNCTION      0.00   540.05     0  02:23           0        4.89       0.146
  WS02006228           JUNCTION      0.00   562.03     0  02:50           0        4.91       0.104
  WS02006229           JUNCTION      0.00   561.62     0  02:50           0        4.92       0.136
  WS02006230           JUNCTION     10.28   589.15     0  02:20       0.296        4.92       0.097
  WS02006231           JUNCTION      0.00   578.12     0  02:16           0        4.62      -0.072
  WS02006232           JUNCTION      0.00   577.29     0  02:16           0        4.64       0.313
  WS02006234           JUNCTION      0.00   580.34     0  01:54           0        4.63      -0.213
  WS02006235           JUNCTION      0.00   566.74     0  01:54           0         4.7       0.254
  WS02006238           JUNCTION      0.00   425.82     0  02:35           0        3.94      -0.138
  WS02006239           JUNCTION      0.00   423.45     0  02:35           0         3.9      -0.141
  WS02006240           JUNCTION      0.00   420.84     0  02:35           0        3.87      -0.041
  WS02006242           JUNCTION      0.00   421.33     0  02:35           0        3.84      -0.080
  WS02006243           JUNCTION      0.00   420.76     0  02:35           0        3.83       0.054
  WS02006245           JUNCTION      0.00   421.61     0  02:35           0        3.84       0.339
  WS02006247           JUNCTION      0.00   421.41     0  02:35           0        3.84       0.015
  WS02006248           JUNCTION      0.00   421.08     0  02:35           0        3.85       0.069
  WS02006249           JUNCTION      0.00   468.10     0  01:50           0        4.03       0.304
  WS02006251           JUNCTION      0.08   409.56     0  03:24     0.00222        4.03      -0.020
  WS02006252           JUNCTION      0.00   400.00     0  00:00           0        4.03      -0.050
  WS02006256           JUNCTION      0.00   300.00     0  00:00           0        1.14      -0.909
  WSF200               JUNCTION      0.00   538.09     0  02:37           0        4.77       0.012
  YS02001580           JUNCTION      0.00    73.69     0  02:03           0      0.0041       2.328
  YS02001583           JUNCTION      0.00   135.98     0  02:02           0      0.0153      -3.970
  YS02001586           JUNCTION    663.62   663.65     0  02:15        1.59         1.6       0.060
  YS02001590           JUNCTION      0.00   317.98     0  02:33           0        1.31      -0.031
  YS02001593           JUNCTION      0.00   318.04     0  02:33           0        1.31       0.000
  YS02001596           JUNCTION      0.00   318.02     0  02:33           0        1.31      -0.013
  YS02001600           JUNCTION      0.00   318.05     0  02:17           0        1.31       0.014
  YS02001601           JUNCTION   1174.92  1492.44     0  02:14        2.21        3.52       0.027
  YS02001602           JUNCTION      0.00   502.72     0  02:02           0        2.27       0.025
  YS02001605           JUNCTION      0.00   502.32     0  02:02           0        2.16       0.031
  YS02001607           JUNCTION      0.00   502.20     0  02:02           0        2.16       0.088
  YS02001610           JUNCTION      0.00   622.51     0  02:15           0        2.31       0.098
  YS02001613           JUNCTION      0.00   498.53     0  02:01           0        1.88       0.084
  YS02001616           JUNCTION      0.00   497.54     0  02:02           0        1.88       0.017
  YS02001619           JUNCTION   1178.60  1178.60     0  02:15        2.55        4.29      -0.010
  YS02001622           JUNCTION      0.00   925.98     0  02:06           0        4.14      -0.004
  YS02001625           JUNCTION      0.00  1246.31     0  02:14           0         4.3       0.213
  YS02001629           JUNCTION      0.00   927.48     0  02:06           0        3.44       0.008
  YS02001633           JUNCTION    883.74  1345.75     0  02:06        1.61        4.87       0.071
  YS02001641           JUNCTION      0.00  1349.03     0  02:06           0         4.7       0.057
  YS02001644           JUNCTION    788.95  1736.50     0  02:06         1.4        6.09       0.052
  YS02001647           JUNCTION      0.00  1743.39     0  02:06           0        5.83       0.007
  YS02001649           JUNCTION      0.00  1966.28     0  02:06           0         7.1       0.003
  YS02001652           JUNCTION      0.00   793.64     0  02:13           0        1.27      -0.063
  YS02001655           JUNCTION      0.15   792.50     0  02:13     0.00443        1.27      -0.056
  YS02001658           JUNCTION      0.00   790.99     0  02:13           0        1.27      -0.022
  YS02001661           JUNCTION      0.00   890.51     0  02:12           0        1.27       0.009
  YS02001664           JUNCTION    766.30   766.30     0  02:14        1.27        1.27      -0.008
  YS02001745           JUNCTION    486.69   486.69     0  02:13       0.772       0.772       0.172
  YS02001748           JUNCTION      0.04   530.12     0  02:10      0.0013       0.772      -0.287
  YS02001751           JUNCTION      0.01   502.72     0  02:13    0.000317       0.778       0.104
  YS02001754           JUNCTION      0.26   503.17     0  02:13     0.00749        0.79      -0.147
  YS02001757           JUNCTION      0.00  3261.38     0  02:11           0        10.5       0.028
  YS02001759           JUNCTION    676.54  1327.69     0  02:12        1.07        2.61      -0.020
  YS02001762           JUNCTION      0.00   735.52     0  02:10           0        1.54      -0.007
  YS02001765           JUNCTION      0.00   736.04     0  02:10           0        1.54      -0.003
  YS02001767           JUNCTION      0.54   736.41     0  02:10      0.0154        1.54      -0.011
  YS02001770           JUNCTION    957.16   957.16     0  02:14        1.63        1.67      -0.027
  YS02001774           JUNCTION      0.00   346.04     0  02:14           0       0.167       0.562
  YS02001779           JUNCTION      0.01   346.13     0  02:13    0.000144       0.121      -0.470
  YS02001783           JUNCTION      0.00  1163.35     0  02:12           0        4.03       0.007
  YS02001784           JUNCTION      1.06  1164.47     0  02:12      0.0305        4.06       0.012
  YS02001786           JUNCTION      0.06  1164.49     0  02:12     0.00162        4.06       0.018
  YS02001788           JUNCTION      0.07  1165.01     0  02:12     0.00204        4.06       0.007
  YS02001790           JUNCTION      0.15  1178.84     0  02:11     0.00446        4.07       0.023
  YS02001791           JUNCTION      0.00  1286.98     0  02:14           0        4.07      -0.026
  YS02001793           JUNCTION      0.00  1253.83     0  02:17           0        4.07       0.004
  YS02001882           JUNCTION      0.00    33.36     0  02:04           0      0.0124       5.486
  YS02001884           JUNCTION      0.00    64.45     0  02:04           0       0.048       5.558
  YS02001887           JUNCTION    730.14   731.38     0  02:13        1.12        1.15       0.391
  YS02001890           JUNCTION      0.00   731.31     0  02:13           0        1.11       0.464
  YS02001895           JUNCTION      0.00   517.33     0  02:17           0        1.05       0.146
  YS02001898           JUNCTION      0.00   517.38     0  02:16           0        1.05       0.020
  YS02001901           JUNCTION      0.00   517.74     0  02:17           0        1.05       0.322
  YS02001904           JUNCTION      0.00   517.35     0  02:17           0        1.05       0.274
  YS02001907           JUNCTION      0.00  1795.04     0  02:14           0        3.49       0.520
  YS02001910           JUNCTION      0.00  1278.63     0  02:14           0        2.45       0.298
  YS02001915           JUNCTION    853.33  1278.88     0  02:14        1.55        2.48       0.062
  YS02001918           JUNCTION      0.00   448.05     0  02:09           0       0.951       0.003
  YS02001920           JUNCTION      2.87   448.05     0  02:09      0.0827       0.937       0.097
  YS02001923           JUNCTION      0.04   431.43     0  02:14     0.00109        0.84      -0.019
  YS02001926           JUNCTION      0.05   430.92     0  02:14      0.0015       0.823       0.028
  YS02001929           JUNCTION    415.17   415.17     0  02:15       0.815       0.815      -0.064
  YS02006553           JUNCTION      0.00   796.70     0  02:28           0        2.45       0.487
  YS02006556           JUNCTION      0.00   796.79     0  02:28           0        2.45       0.332
  YS02006558           JUNCTION    978.21  1163.34     0  02:12        1.63        4.06       0.084
  YS02006561           JUNCTION      0.00  1163.23     0  02:11           0        4.03       0.001
  YS02163301           JUNCTION      0.00   932.52     0  02:06           0        3.43       0.046
  YS02163601           JUNCTION      0.11  1347.05     0  02:06     0.00317         4.7       0.107
  YS02164001           JUNCTION      0.00  1348.02     0  02:06           0         4.7       0.046
  CC-1                 OUTFALL       0.00   683.00     0  00:00           0        3.48       0.000
  CC-2                 OUTFALL       0.00   683.00     0  00:00           0           3       0.000
  JK-1                 OUTFALL       0.00  1000.00     0  00:00           0        1.64       0.000
  JK-2                 OUTFALL       0.00  1000.00     0  00:00           0         1.4       0.000
  WSC                  OUTFALL       0.00   555.54     0  02:40           0        5.28       0.000
  CC-storage           STORAGE       0.00  3261.53     0  02:11           0        12.7      -0.075
  JK-storage           STORAGE       0.00  1230.71     0  02:14           0        4.22      -0.398
  
  
  **********************
  Node Surcharge Summary
  **********************
  
  Surcharging occurs when water rises above the top of the highest conduit.
  ---------------------------------------------------------------------
                                               Max. Height   Min. Depth
                                   Hours       Above Crown    Below Rim
  Node                 Type      Surcharged         Meters       Meters
  ---------------------------------------------------------------------
  WS02004404           JUNCTION        0.01          0.041        2.739
  WS02006109           JUNCTION        2.01          0.415        1.405
  WS02006110           JUNCTION        0.54          0.424        1.426
  WS02006112           JUNCTION        0.71          0.096        1.584
  WS02006228           JUNCTION        2.01          0.627        1.573
  WS02006229           JUNCTION        2.01          0.727        1.723
  WS02006230           JUNCTION        0.55          0.804        0.766
  WS02006231           JUNCTION        0.71          0.673        0.857
  WS02006232           JUNCTION        2.04          0.792        0.688
  WS02006234           JUNCTION        1.10          0.702        0.538
  WS02006235           JUNCTION        1.97          0.788        0.502
  WS02006238           JUNCTION        2.01          0.823        0.607
  WS02006239           JUNCTION        1.98          0.759        0.531
  WS02006240           JUNCTION        2.01          0.752        0.638
  WS02006242           JUNCTION        2.02          0.767        0.053
  WS02006243           JUNCTION        2.00          0.627        0.143
  WS02006245           JUNCTION        1.99          0.634        0.216
  WS02006247           JUNCTION        2.00          0.615        0.145
  WS02006248           JUNCTION        1.99          0.380        0.000
  WS02006249           JUNCTION        1.99          0.390        0.000
  WS02006251           JUNCTION        0.79          0.469        0.711
  WS02006252           JUNCTION        2.26          1.100        0.000
  WS02006256           JUNCTION        5.25          2.050        0.000
  YS02001580           JUNCTION        0.60          0.450        0.000
  YS02001583           JUNCTION        0.61          0.421        0.079
  YS02001586           JUNCTION        0.74          0.510        0.000
  YS02001590           JUNCTION        0.81          0.750        0.000
  YS02001593           JUNCTION        0.82          0.720        0.120
  YS02001596           JUNCTION        0.94          0.955        0.115
  YS02001600           JUNCTION        1.11          1.190        0.000
  YS02001601           JUNCTION        1.43          1.440        0.000
  YS02001602           JUNCTION        1.33          1.270        0.000
  YS02001605           JUNCTION        1.28          1.177        0.003
  YS02001607           JUNCTION        0.80          0.646        0.034
  YS02001610           JUNCTION        0.82          0.680        0.000
  YS02001613           JUNCTION        0.79          0.668        0.032
  YS02001616           JUNCTION        0.74          0.610        0.000
  YS02001619           JUNCTION        0.73          0.610        0.000
  YS02001622           JUNCTION        0.73          0.582        0.038
  YS02001625           JUNCTION        0.92          0.780        0.000
  YS02001629           JUNCTION        0.68          0.470        0.000
  YS02001633           JUNCTION        0.94          0.985        0.075
  YS02001641           JUNCTION        0.88          0.949        0.151
  YS02001644           JUNCTION        0.85          0.920        0.000
  YS02001647           JUNCTION        0.63          0.775        0.125
  YS02001649           JUNCTION        0.74          1.022        0.028
  YS02001652           JUNCTION        0.54          0.821        0.309
  YS02001655           JUNCTION        0.39          0.674        0.526
  YS02001658           JUNCTION        0.20          0.525        0.775
  YS02001661           JUNCTION        0.01          0.126        1.264
  YS02001748           JUNCTION        0.14          1.190        0.000
  YS02001751           JUNCTION        0.28          1.125        0.075
  YS02001754           JUNCTION        0.45          0.928        0.222
  YS02001757           JUNCTION        0.81          1.109        0.101
  YS02001759           JUNCTION        0.71          1.051        0.159
  YS02001762           JUNCTION        0.67          1.005        0.145
  YS02001765           JUNCTION        0.63          0.978        0.122
  YS02001767           JUNCTION        0.60          0.941        0.089
  YS02001770           JUNCTION        0.57          0.920        0.000
  YS02001774           JUNCTION        0.66          1.049        0.001
  YS02001779           JUNCTION        0.44          0.680        0.000
  YS02001783           JUNCTION        0.53          0.550        1.050
  YS02001784           JUNCTION        0.51          0.374        1.116
  YS02001786           JUNCTION        0.40          0.129        1.301
  YS02001882           JUNCTION        0.47          0.693        0.137
  YS02001884           JUNCTION        0.49          0.721        0.149
  YS02001887           JUNCTION        0.52          0.796        0.154
  YS02001890           JUNCTION        0.54          0.760        0.000
  YS02001895           JUNCTION        0.46          0.584        0.166
  YS02001898           JUNCTION        0.46          0.562        0.178
  YS02001901           JUNCTION        0.51          0.698        0.172
  YS02001904           JUNCTION        0.50          0.650        0.200
  YS02001907           JUNCTION        0.77          0.950        0.000
  YS02001910           JUNCTION        0.57          0.967        0.133
  YS02001915           JUNCTION        0.47          0.912        0.088
  YS02001918           JUNCTION        0.38          0.810        0.000
  YS02001920           JUNCTION        0.40          1.134        0.006
  YS02001923           JUNCTION        0.05          0.820        0.000
  YS02001926           JUNCTION        0.10          0.900        0.000
  YS02001929           JUNCTION        0.01          0.780        0.000
  YS02006553           JUNCTION        0.79          0.987        0.203
  YS02006556           JUNCTION        0.66          0.947        0.403
  YS02006558           JUNCTION        0.65          0.949        0.451
  YS02006561           JUNCTION        0.35          0.281        0.869
  YS02163301           JUNCTION        0.93          0.915        0.115
  YS02163601           JUNCTION        0.98          1.030        0.050
  YS02164001           JUNCTION        0.88          0.947        0.153
  
  
  *********************
  Node Flooding Summary
  *********************
  
  Flooding refers to all water that overflows a node, whether it ponds or not.
  --------------------------------------------------------------------------
                                                             Total   Maximum
                                 Maximum   Time of Max       Flood    Ponded
                        Hours       Rate    Occurrence      Volume     Depth
  Node                 Flooded       LPS   days hr:min    10^6 ltr    Meters
  --------------------------------------------------------------------------
  WS02006248              0.01     18.63      0  02:25       0.000     0.000
  WS02006249              0.75     98.97      0  02:06       0.174     0.000
  WS02006252              0.01    245.63      0  00:00       0.000     0.000
  WS02006256              1.05    293.19      0  00:00       0.351     0.000
  YS02001580              0.01     46.92      0  02:03       0.000     0.000
  YS02001586              0.46    345.96      0  02:15       0.282     0.000
  YS02001590              0.01      4.19      0  02:03       0.000     0.000
  YS02001600              0.01      1.86      0  02:03       0.000     0.000
  YS02001601              0.66   1094.43      0  02:14       1.245     0.000
  YS02001602              0.54     62.00      0  02:09       0.109     0.000
  YS02001610              0.47    622.48      0  02:15       0.566     0.000
  YS02001616              0.01      0.61      0  02:06       0.000     0.000
  YS02001619              0.01      2.07      0  02:06       0.000     0.000
  YS02001625              0.45   1246.17      0  02:14       1.023     0.000
  YS02001629              0.09     98.37      0  02:11       0.018     0.000
  YS02001644              0.17    705.71      0  02:13       0.256     0.000
  YS02001748              0.01    150.61      0  02:10       0.000     0.000
  YS02001770              0.01     73.84      0  02:07       0.000     0.000
  YS02001779              0.15    346.09      0  02:14       0.101     0.000
  YS02001890              0.16    215.55      0  02:13       0.057     0.000
  YS02001907              0.33   1601.57      0  02:14       1.039     0.000
  YS02001918              0.01     85.53      0  02:08       0.001     0.000
  YS02001923              0.01     30.74      0  02:08       0.000     0.000
  YS02001926              0.01     36.07      0  02:08       0.000     0.000
  YS02001929              0.01    252.27      0  02:08       0.001     0.000
  
  
  **********************
  Storage Volume Summary
  **********************
  
  ------------------------------------------------------------------------------------------------
                         Average    Avg   Evap  Exfil     Maximum    Max    Time of Max    Maximum
                          Volume   Pcnt   Pcnt   Pcnt      Volume   Pcnt     Occurrence    Outflow
  Storage Unit           1000 m³   Full   Loss   Loss     1000 m³   Full    days hr:min        LPS
  ------------------------------------------------------------------------------------------------
  CC-storage               2.696   42.1    0.0    0.0       4.631   72.2       0  02:38    1783.53
  JK-storage               0.153   52.6    0.0    0.0       0.213   73.1       0  02:20    2300.00
  
  
  ***********************
  Outfall Loading Summary
  ***********************
  
  -----------------------------------------------------------
                         Flow       Avg       Max       Total
                         Freq      Flow      Flow      Volume
  Outfall Node           Pcnt       LPS       LPS    10^6 ltr
  -----------------------------------------------------------
  CC-1                  20.07    683.00    683.00       3.484
  CC-2                  18.85    683.00    683.00       2.997
  JK-1                   6.74   1000.00   1000.00       1.644
  JK-2                   6.48   1000.00   1000.00       1.400
  WSC                   99.96    259.41    555.54       5.285
  -----------------------------------------------------------
  System                30.42   3625.41   3912.65      14.809
  
  
  ********************
  Link Flow Summary
  ********************
  
  -----------------------------------------------------------------------------
                                 Maximum  Time of Max   Maximum    Max/    Max/
                                  |Flow|   Occurrence   |Veloc|    Full    Full
  Link                 Type          LPS  days hr:min     m/sec    Flow   Depth
  -----------------------------------------------------------------------------
  1                    CONDUIT    555.54     0  02:40      2.83    0.19    0.30
  WS02003060WS02003069 CONDUIT    554.69     0  02:38      1.64    0.22    0.34
  WS02003066WSF200     CONDUIT    538.09     0  02:37      2.85    0.09    0.22
  WS02003067WS02003066 CONDUIT    537.97     0  02:37      1.21    0.17    0.42
  WS02003069WS02003072 CONDUIT    554.33     0  02:38      1.37    0.27    0.39
  WS02003072WS02003073 CONDUIT    554.04     0  02:39      1.44    1.20    0.37
  WS02004401WS02004402 CONDUIT    540.12     0  02:33      0.98    0.65    0.89
  WS02004402WS02004403 CONDUIT    539.39     0  02:33      0.97    0.77    0.91
  WS02004403WS02004404 CONDUIT    562.30     0  02:34      0.92    0.41    0.96
  WS02004404WS02004405 CONDUIT    611.03     0  02:34      1.08    5.99    0.98
  WS02004405WS02004406 CONDUIT    545.06     0  02:35      0.99    1.08    0.96
  WS02004406WS02004407 CONDUIT    540.23     0  02:35      1.04    0.24    0.63
  WS02004407WS02004409 CONDUIT    539.53     0  02:35      1.50    0.19    0.48
  WS02004409WS02004410 CONDUIT    539.03     0  02:35      0.98    0.70    0.68
  WS02004410WS02004411 CONDUIT    538.53     0  02:35      0.94    0.74    0.69
  WS02004411WS02004412 CONDUIT    538.44     0  02:36      0.92    0.76    0.69
  WS02004412WS02004413 CONDUIT    538.39     0  02:36      0.82    0.36    0.78
  WS02004413WS02003067 CONDUIT    537.79     0  02:36      1.11    0.23    0.59
  WS02006109WS02006110 CONDUIT    562.37     0  02:50      1.12    1.08    1.00
  WS02006110WS02006113 CONDUIT    569.01     0  02:51      1.38    0.52    0.79
  WS02006111WS02006112 CONDUIT    542.67     0  02:32      1.81    0.26    0.67
  WS02006112WS02006115 CONDUIT    549.50     0  03:34      0.81    0.32    0.88
  WS02006113WS02006111 CONDUIT    561.82     0  02:52      2.47    0.67    0.46
  WS02006115WS02006116 CONDUIT    540.05     0  02:23      0.98    0.69    0.78
  WS02006116WS02004401 CONDUIT    540.52     0  02:34      0.98    0.75    0.86
  WS02006228WS02006109 CONDUIT    562.05     0  02:50      1.12    2.46    1.00
  WS02006229WS02006228 CONDUIT    562.03     0  02:50      1.14    1.86    1.00
  WS02006230WS02006229 CONDUIT    561.62     0  02:50      1.46   12.50    1.00
  WS02006231WS02006230 CONDUIT    578.87     0  02:20      1.57    8.78    1.00
  WS02006232WS02006231 CONDUIT    578.12     0  02:16      1.51    1.21    1.00
  WS02006234WS02006232 CONDUIT    577.29     0  02:16      1.50    1.17    1.00
  WS02006235WS02006234 CONDUIT    580.34     0  01:54      1.63    6.12    1.00
  WS02006238WS02006235 CONDUIT    425.69     0  02:35      1.48    0.95    1.00
  WS02006239WS02006238 CONDUIT    425.82     0  02:35      1.11    1.36    1.00
  WS02006240WS02006239 CONDUIT    423.45     0  02:35      1.24    1.33    1.00
  WS02006242WS02006240 CONDUIT    420.84     0  02:35      1.13    1.67    1.00
  WS02006243WS02006242 CONDUIT    421.33     0  02:35      1.40    0.90    1.00
  WS02006245WS02006243 CONDUIT    420.76     0  02:35      1.45    1.24    1.00
  WS02006247WS02006245 CONDUIT    421.61     0  02:35      1.43    3.34    1.00
  WS02006248WS02006247 CONDUIT    421.41     0  02:35      1.44    0.92    1.00
  WS02006249WS02006248 CONDUIT    421.08     0  02:35      1.36    2.31    1.00
  WS02006251WS02006249 CONDUIT    468.10     0  01:50      1.99    1.35    1.00
  WS02006252WS02006251 CONDUIT    409.49     0  03:24     24.61    1.50    1.00
  WS02006256WS02006235 CONDUIT    288.91     0  00:00      4.23    3.06    1.00
  WSF200WS02003060     CONDUIT    538.55     0  02:37      2.06    0.12    0.28
  YS02001580YS02001583 CONDUIT     73.69     0  02:03      0.55    0.29    1.00
  YS02001583YS02001586 CONDUIT    135.98     0  02:02      0.56    0.21    1.00
  YS02001586YS02001590 CONDUIT    317.98     0  02:33      1.25    0.56    1.00
  YS02001590YS02001593 CONDUIT    318.04     0  02:33      1.12    2.00    1.00
  YS02001593YS02001596 CONDUIT    318.02     0  02:33      1.74    0.50    1.00
  YS02001596YS02001600 CONDUIT    318.05     0  02:17      1.25    0.62    1.00
  YS02001600YS02001601 CONDUIT    318.00     0  02:33      1.12    0.55    1.00
  YS02001601YS02001602 CONDUIT    502.72     0  02:02      1.78    1.82    1.00
  YS02001602YS02001605 CONDUIT    502.32     0  02:02      1.78   10.63    1.00
  YS02001605YS02001607 CONDUIT    502.20     0  02:02      1.78    2.75    1.00
  YS02001607YS02001610 CONDUIT    498.73     0  02:01      0.64    0.47    1.00
  YS02001610YS02001613 CONDUIT    498.53     0  02:01      0.63    0.57    1.00
  YS02001613YS02001616 CONDUIT    497.54     0  02:02      0.64    0.43    1.00
  YS02001616YS02001619 CONDUIT    495.93     0  02:02      0.66    0.86    1.00
  YS02001619YS02001622 CONDUIT    925.98     0  02:06      1.18    1.36    1.00
  YS02001622YS02001625 CONDUIT    926.90     0  02:06      1.18    0.49    1.00
  YS02001625YS02001629 CONDUIT    927.48     0  02:06      1.18    0.44    1.00
  YS02001629YS02163301 CONDUIT    932.52     0  02:06      1.19    1.15    1.00
  YS02001633YS02163601 CONDUIT   1346.94     0  02:06      1.71    1.41    1.00
  YS02001641YS02001644 CONDUIT   1350.05     0  02:06      1.72    4.36    1.00
  YS02001644YS02001647 CONDUIT   1743.39     0  02:06      2.23    1.02    1.00
  YS02001647YS02001649 CONDUIT   1761.79     0  02:06      2.30    0.93    1.00
  YS02001649YS02001757 CONDUIT   1932.07     0  02:07      2.47    1.17    1.00
  YS02001652YS02001649 CONDUIT    795.15     0  02:13      1.01    0.39    1.00
  YS02001655YS02001652 CONDUIT    793.64     0  02:13      1.28    0.39    1.00
  YS02001658YS02001655 CONDUIT    792.34     0  02:13      1.84    0.34    1.00
  YS02001661YS02001658 CONDUIT    790.99     0  02:13      2.25    0.31    1.00
  YS02001664YS02001661 CONDUIT    890.51     0  02:12      2.23    0.28    0.74
  YS02001745YS02001748 CONDUIT    530.07     0  02:10      2.11    0.20    0.88
  YS02001748YS02001751 CONDUIT    502.71     0  02:13      1.66    0.25    1.00
  YS02001751YS02001754 CONDUIT    502.91     0  02:13      1.41    0.24    1.00
  YS02001754YS02001757 CONDUIT    503.18     0  02:13      0.64    0.20    1.00
  YS02001757CaochengTiaoxuchi CONDUIT   3261.53     0  02:11      4.15    1.41    1.00
  YS02001759YS02001757 CONDUIT   1327.54     0  02:12      1.69    0.94    1.00
  YS02001762YS02001759 CONDUIT    735.88     0  02:10      0.94    0.85    1.00
  YS02001765YS02001762 CONDUIT    735.52     0  02:10      0.94    0.69    1.00
  YS02001767YS02001765 CONDUIT    736.04     0  02:10      0.94    0.93    1.00
  YS02001770YS02001767 CONDUIT    735.87     0  02:10      0.94    2.91    1.00
  YS02001774YS02001770 CONDUIT    346.04     0  02:14      0.44    0.22    1.00
  YS02001779YS02001774 CONDUIT    346.12     0  02:13      0.44    0.17    1.00
  YS02001783YS02001784 CONDUIT   1163.41     0  02:12      2.31    1.60    1.00
  YS02001784YS02001785 CONDUIT   1164.43     0  02:12      2.32    2.71    1.00
  YS02001786YS02001788 CONDUIT   1164.94     0  02:12      2.48    2.24    0.89
  YS02001788YS02001790 CONDUIT   1178.69     0  02:11      2.72    0.87    0.84
  YS02001790YS02001791 CONDUIT   1286.98     0  02:14      3.42    1.40    0.70
  YS02001791YS02001793 CONDUIT   1253.83     0  02:17      6.74    0.54    0.45
  YS02001793JiankangQianchi CONDUIT   1230.71     0  02:14      2.47    0.10    0.65
  YS02001882YS02001884 CONDUIT     33.36     0  02:04      0.13    0.04    1.00
  YS02001884YS02001887 CONDUIT     64.45     0  02:04      0.09    0.09    1.00
  YS02001887YS02001890 CONDUIT    731.31     0  02:13      0.93    1.25    1.00
  YS02001890YS02001895 CONDUIT    517.33     0  02:17      0.66    0.24    1.00
  YS02001895YS02001898 CONDUIT    517.38     0  02:16      0.66    0.90    1.00
  YS02001898YS02001901 CONDUIT    517.74     0  02:17      0.66    0.33    1.00
  YS02001901YS02001904 CONDUIT    517.35     0  02:17      0.66    0.80    1.00
  YS02001904YS02001907 CONDUIT    517.34     0  02:17      0.66    0.18    1.00
  YS02001907YS02006553 CONDUIT    796.70     0  02:28      0.89    0.94    1.00
  YS02001910YS02001907 CONDUIT   1278.84     0  02:14      1.63    0.72    1.00
  YS02001915YS02001910 CONDUIT   1278.63     0  02:14      1.63    0.64    1.00
  YS02001918YS02001915 CONDUIT    448.09     0  02:08      0.57    0.25    1.00
  YS02001920YS02001918 CONDUIT    448.05     0  02:09      0.64    0.43    1.00
  YS02001923YS02001920 CONDUIT    445.18     0  02:09      0.69    0.20    1.00
  YS02001926YS02001923 CONDUIT    431.39     0  02:14      0.95    0.62    1.00
  YS02001929YS02001926 CONDUIT    430.87     0  02:14      1.09    0.20    1.00
  YS02006553YS02006556 CONDUIT    796.79     0  02:28      1.01    0.68    1.00
  YS02006556YS02006558 CONDUIT    798.19     0  02:28      1.02    0.63    1.00
  YS02006558YS02006561 CONDUIT   1163.23     0  02:11      4.11    2.57    1.00
  YS02006561YS02001783 CONDUIT   1163.35     0  02:12      2.31    0.60    1.00
  YS02163301YS02001633 CONDUIT    934.36     0  02:06      1.19    0.88    1.00
  YS02163601YS02164001 CONDUIT   1348.02     0  02:06      1.72    1.19    1.00
  YS02164001YS02001641 CONDUIT   1349.03     0  02:06      1.72    1.84    1.00
  CC-R1                PUMP       683.00     0  00:00              1.00
  CC-R2                PUMP       683.00     0  00:00              1.00
  CC-S1                PUMP       200.00     0  00:00              1.00
  CC-S2                PUMP       200.00     0  00:00              1.00
  JK-R1                PUMP      1000.00     0  00:00              1.00
  JK-R2                PUMP      1000.00     0  00:00              1.00
  JK-S                 PUMP       300.00     0  00:00              1.00
  
  
  ***************************
  Flow Classification Summary
  ***************************
  
  -------------------------------------------------------------------------------------
                      Adjusted    ---------- Fraction of Time in Flow Class ---------- 
                       /Actual         Up    Down  Sub   Sup   Up    Down  Norm  Inlet 
  Conduit               Length    Dry  Dry   Dry   Crit  Crit  Crit  Crit  Ltd   Ctrl  
  -------------------------------------------------------------------------------------
  1                       1.00   0.00  0.00  0.00  0.00  1.00  0.00  0.00  0.51  0.00
  WS02003060WS02003069    1.00   0.00  0.00  0.00  0.98  0.02  0.00  0.00  0.69  0.00
  WS02003066WSF200        1.00   0.13  0.00  0.00  0.00  0.87  0.00  0.00  0.78  0.00
  WS02003067WS02003066    1.00   0.10  0.02  0.00  0.88  0.00  0.00  0.00  0.00  0.00
  WS02003069WS02003072    1.00   0.00  0.00  0.00  0.99  0.01  0.00  0.00  0.72  0.00
  WS02003072WS02003073    1.00   0.00  0.00  0.00  0.00  0.00  0.00  1.00  0.00  0.00
  WS02004401WS02004402    1.00   0.02  0.00  0.00  0.98  0.00  0.00  0.00  0.00  0.00
  WS02004402WS02004403    1.00   0.02  0.00  0.00  0.97  0.00  0.00  0.00  0.00  0.00
  WS02004403WS02004404    1.00   0.00  0.03  0.00  0.97  0.00  0.00  0.00  0.00  0.00
  WS02004404WS02004405    1.00   0.00  0.00  0.00  1.00  0.00  0.00  0.00  0.01  0.00
  WS02004405WS02004406    1.00   0.00  0.00  0.00  1.00  0.00  0.00  0.00  0.00  0.00
  WS02004406WS02004407    1.00   0.00  0.05  0.00  0.95  0.00  0.00  0.00  0.00  0.00
  WS02004407WS02004409    1.00   0.05  0.00  0.00  0.94  0.01  0.00  0.00  0.94  0.00
  WS02004409WS02004410    1.00   0.05  0.00  0.00  0.95  0.00  0.00  0.00  0.03  0.00
  WS02004410WS02004411    1.00   0.05  0.00  0.00  0.95  0.00  0.00  0.00  0.01  0.00
  WS02004411WS02004412    1.00   0.05  0.00  0.00  0.95  0.00  0.00  0.00  0.00  0.00
  WS02004412WS02004413    1.00   0.05  0.00  0.00  0.94  0.00  0.00  0.00  0.01  0.00
  WS02004413WS02003067    1.00   0.06  0.04  0.00  0.00  0.00  0.90  0.00  0.00  0.00
  WS02006109WS02006110    1.00   0.00  0.01  0.00  0.98  0.00  0.01  0.00  0.00  0.00
  WS02006110WS02006113    1.00   0.01  0.01  0.00  0.98  0.00  0.00  0.00  0.00  0.00
  WS02006111WS02006112    1.00   0.02  0.00  0.00  0.98  0.00  0.00  0.00  0.98  0.00
  WS02006112WS02006115    1.00   0.02  0.00  0.00  0.97  0.00  0.00  0.00  0.00  0.00
  WS02006113WS02006111    1.00   0.02  0.00  0.00  0.00  0.98  0.00  0.00  0.13  0.00
  WS02006115WS02006116    1.00   0.02  0.00  0.00  0.97  0.00  0.00  0.01  0.00  0.00
  WS02006116WS02004401    1.00   0.02  0.00  0.00  0.98  0.00  0.00  0.00  0.00  0.00
  WS02006228WS02006109    1.00   0.00  0.00  0.00  1.00  0.00  0.00  0.00  0.00  0.00
  WS02006229WS02006228    1.00   0.00  0.00  0.00  0.99  0.00  0.00  0.01  0.00  0.00
  WS02006230WS02006229    1.00   0.00  0.00  0.00  0.99  0.00  0.00  0.01  0.02  0.00
  WS02006231WS02006230    1.00   0.00  0.00  0.00  0.26  0.00  0.73  0.00  0.00  0.00
  WS02006232WS02006231    1.00   0.00  0.00  0.00  0.98  0.00  0.01  0.00  0.00  0.00
  WS02006234WS02006232    1.00   0.00  0.00  0.00  1.00  0.00  0.00  0.00  0.23  0.00
  WS02006235WS02006234    1.00   0.00  0.00  0.00  0.73  0.00  0.27  0.00  0.00  0.00
  WS02006238WS02006235    1.00   0.00  0.00  0.00  1.00  0.00  0.00  0.00  0.00  0.00
  WS02006239WS02006238    1.00   0.00  0.00  0.00  1.00  0.00  0.00  0.00  0.34  0.00
  WS02006240WS02006239    1.00   0.00  0.00  0.00  0.60  0.00  0.00  0.40  0.04  0.00
  WS02006242WS02006240    1.00   0.00  0.00  0.00  0.99  0.00  0.01  0.00  0.00  0.00
  WS02006243WS02006242    1.00   0.00  0.00  0.00  0.98  0.00  0.00  0.01  0.53  0.00
  WS02006245WS02006243    1.00   0.00  0.00  0.00  0.66  0.00  0.00  0.34  0.02  0.00
  WS02006247WS02006245    1.00   0.00  0.00  0.00  0.99  0.00  0.00  0.01  0.00  0.00
  WS02006248WS02006247    1.00   0.00  0.00  0.00  0.99  0.00  0.00  0.01  0.24  0.00
  WS02006249WS02006248    1.00   0.00  0.00  0.00  0.46  0.00  0.54  0.00  0.00  0.00
  WS02006251WS02006249    1.00   0.00  0.00  0.00  1.00  0.00  0.00  0.00  0.55  0.00
  WS02006252WS02006251    1.00   0.00  0.58  0.00  0.10  0.00  0.32  0.00  0.00  0.00
  WS02006256WS02006235    1.00   0.00  0.00  0.00  0.99  0.01  0.00  0.00  0.00  0.00
  WSF200WS02003060        1.00   0.00  0.13  0.00  0.32  0.55  0.00  0.00  0.50  0.00
  YS02001580YS02001583    1.00   0.25  0.56  0.00  0.19  0.00  0.00  0.00  0.65  0.00
  YS02001583YS02001586    1.00   0.41  0.34  0.00  0.25  0.00  0.00  0.00  0.65  0.00
  YS02001586YS02001590    1.00   0.13  0.00  0.00  0.44  0.04  0.00  0.40  0.37  0.00
  YS02001590YS02001593    1.00   0.13  0.01  0.00  0.12  0.00  0.75  0.00  0.00  0.00
  YS02001593YS02001596    1.00   0.13  0.00  0.00  0.14  0.01  0.00  0.72  0.02  0.00
  YS02001596YS02001600    1.00   0.14  0.00  0.00  0.20  0.01  0.00  0.65  0.05  0.00
  YS02001600YS02001601    1.00   0.13  0.01  0.00  0.86  0.00  0.00  0.00  0.60  0.00
  YS02001601YS02001602    1.00   0.13  0.01  0.00  0.87  0.00  0.00  0.00  0.00  0.00
  YS02001602YS02001605    1.00   0.13  0.00  0.00  0.86  0.00  0.00  0.00  0.00  0.00
  YS02001605YS02001607    1.00   0.14  0.00  0.00  0.86  0.00  0.00  0.00  0.00  0.00
  YS02001607YS02001610    1.00   0.13  0.01  0.00  0.86  0.00  0.00  0.00  0.01  0.00
  YS02001610YS02001613    1.00   0.13  0.00  0.00  0.87  0.00  0.00  0.00  0.00  0.00
  YS02001613YS02001616    1.00   0.13  0.00  0.00  0.87  0.00  0.00  0.00  0.00  0.00
  YS02001616YS02001619    1.00   0.13  0.00  0.00  0.87  0.00  0.00  0.00  0.00  0.00
  YS02001619YS02001622    1.00   0.13  0.00  0.00  0.87  0.00  0.00  0.00  0.28  0.00
  YS02001622YS02001625    1.00   0.13  0.00  0.00  0.87  0.00  0.00  0.00  0.04  0.00
  YS02001625YS02001629    1.00   0.13  0.05  0.00  0.16  0.00  0.66  0.00  0.00  0.00
  YS02001629YS02163301    1.00   0.15  0.01  0.00  0.84  0.00  0.00  0.00  0.00  0.00
  YS02001633YS02163601    1.00   0.00  0.01  0.00  0.99  0.00  0.00  0.00  0.15  0.00
  YS02001641YS02001644    1.00   0.00  0.01  0.00  0.99  0.00  0.00  0.00  0.00  0.00
  YS02001644YS02001647    1.00   0.00  0.17  0.00  0.83  0.00  0.00  0.00  0.00  0.00
  YS02001647YS02001649    1.00   0.00  0.17  0.00  0.58  0.24  0.00  0.00  0.55  0.00
  YS02001649YS02001757    1.00   0.00  0.00  0.00  0.86  0.13  0.00  0.00  0.42  0.00
  YS02001652YS02001649    1.00   0.00  0.00  0.00  0.97  0.03  0.00  0.00  0.72  0.00
  YS02001655YS02001652    1.00   0.00  0.00  0.00  0.19  0.02  0.00  0.79  0.06  0.00
  YS02001658YS02001655    1.00   0.00  0.14  0.00  0.66  0.20  0.00  0.00  0.69  0.00
  YS02001661YS02001658    1.00   0.14  0.00  0.00  0.50  0.36  0.00  0.00  0.70  0.00
  YS02001664YS02001661    1.00   0.13  0.00  0.00  0.76  0.11  0.00  0.00  0.86  0.00
  YS02001745YS02001748    1.00   0.00  0.00  0.00  0.09  0.01  0.00  0.90  0.05  0.00
  YS02001748YS02001751    1.00   0.00  0.00  0.00  0.82  0.18  0.00  0.00  0.75  0.00
  YS02001751YS02001754    1.00   0.00  0.00  0.00  0.17  0.01  0.00  0.83  0.04  0.00
  YS02001754YS02001757    1.00   0.00  0.00  0.00  1.00  0.00  0.00  0.00  0.78  0.00
  YS02001757CaochengTiaoxuchi    1.00   0.00  0.00  0.00  1.00  0.00  0.00  0.00  0.52  0.00
  YS02001759YS02001757    1.00   0.00  0.00  0.00  1.00  0.00  0.00  0.00  0.50  0.00
  YS02001762YS02001759    1.00   0.00  0.00  0.00  1.00  0.00  0.00  0.00  0.06  0.00
  YS02001765YS02001762    1.00   0.00  0.00  0.00  1.00  0.00  0.00  0.00  0.64  0.00
  YS02001767YS02001765    1.00   0.00  0.00  0.00  1.00  0.00  0.00  0.00  0.01  0.00
  YS02001770YS02001767    1.00   0.00  0.00  0.00  1.00  0.00  0.00  0.00  0.00  0.00
  YS02001774YS02001770    1.00   0.00  0.13  0.00  0.70  0.00  0.16  0.00  0.03  0.00
  YS02001779YS02001774    1.00   0.00  0.00  0.00  1.00  0.00  0.00  0.00  0.76  0.00
  YS02001783YS02001784    1.00   0.00  0.18  0.00  0.82  0.00  0.00  0.00  0.55  0.00
  YS02001784YS02001785    1.00   0.00  0.00  0.00  1.00  0.00  0.00  0.00  0.17  0.00
  YS02001786YS02001788    1.00   0.00  0.00  0.00  0.79  0.21  0.00  0.00  0.00  0.00
  YS02001788YS02001790    1.00   0.00  0.00  0.00  0.21  0.79  0.00  0.00  0.80  0.00
  YS02001790YS02001791    1.00   0.00  0.00  0.00  0.01  0.99  0.00  0.00  0.16  0.00
  YS02001791YS02001793    1.00   0.00  0.00  0.00  0.00  1.00  0.00  0.00  0.01  0.00
  YS02001793JiankangQianchi    1.00   0.00  0.00  0.00  0.98  0.02  0.00  0.00  0.97  0.00
  YS02001882YS02001884    1.00   0.15  0.01  0.00  0.84  0.00  0.00  0.00  0.00  0.00
  YS02001884YS02001887    1.00   0.06  0.05  0.00  0.89  0.00  0.00  0.00  0.00  0.00
  YS02001887YS02001890    1.00   0.00  0.00  0.00  0.97  0.00  0.03  0.00  0.00  0.00
  YS02001890YS02001895    1.00   0.00  0.16  0.00  0.84  0.00  0.00  0.00  0.00  0.00
  YS02001895YS02001898    1.00   0.16  0.00  0.00  0.82  0.00  0.02  0.00  0.00  0.00
  YS02001898YS02001901    1.00   0.17  0.00  0.00  0.83  0.00  0.00  0.00  0.01  0.00
  YS02001901YS02001904    1.00   0.17  0.00  0.00  0.83  0.00  0.00  0.00  0.00  0.00
  YS02001904YS02001907    1.00   0.00  0.16  0.00  0.83  0.00  0.00  0.00  0.00  0.00
  YS02001907YS02006553    1.00   0.00  0.02  0.00  0.98  0.00  0.00  0.00  0.00  0.00
  YS02001910YS02001907    1.00   0.00  0.00  0.00  0.97  0.00  0.00  0.03  0.12  0.00
  YS02001915YS02001910    1.00   0.00  0.00  0.00  0.97  0.03  0.00  0.00  0.16  0.00
  YS02001918YS02001915    1.00   0.00  0.01  0.00  0.98  0.02  0.00  0.00  0.74  0.00
  YS02001920YS02001918    1.00   0.00  0.01  0.00  0.99  0.00  0.00  0.00  0.00  0.00
  YS02001923YS02001920    1.00   0.00  0.00  0.00  1.00  0.00  0.00  0.00  0.92  0.00
  YS02001926YS02001923    1.00   0.00  0.07  0.00  0.06  0.00  0.87  0.00  0.00  0.00
  YS02001929YS02001926    1.00   0.00  0.13  0.00  0.87  0.00  0.00  0.00  0.82  0.00
  YS02006553YS02006556    1.00   0.01  0.00  0.00  0.99  0.00  0.00  0.00  0.03  0.00
  YS02006556YS02006558    1.00   0.00  0.00  0.00  1.00  0.00  0.00  0.00  0.00  0.00
  YS02006558YS02006561    1.00   0.18  0.00  0.00  0.06  0.77  0.00  0.00  0.19  0.00
  YS02006561YS02001783    1.00   0.18  0.00  0.00  0.09  0.73  0.00  0.00  0.68  0.00
  YS02163301YS02001633    1.00   0.00  0.15  0.00  0.85  0.00  0.00  0.00  0.00  0.00
  YS02163601YS02164001    1.00   0.00  0.08  0.00  0.92  0.00  0.00  0.00  0.00  0.00
  YS02164001YS02001641    1.00   0.01  0.07  0.00  0.92  0.00  0.00  0.00  0.05  0.00
  
  
  *************************
  Conduit Surcharge Summary
  *************************
  
  ----------------------------------------------------------------------------
                                                           Hours        Hours 
                         --------- Hours Full --------   Above Full   Capacity
  Conduit                Both Ends  Upstream  Dnstream   Normal Flow   Limited
  ----------------------------------------------------------------------------
  WS02003072WS02003073        0.01      0.01      0.01      1.13         0.01
  WS02004403WS02004404        0.01      0.01      0.01      0.01         0.01
  WS02004404WS02004405        0.01      0.01      0.01      3.36         0.01
  WS02004405WS02004406        0.01      0.01      0.01      0.42         0.01
  WS02006109WS02006110        0.53      0.53      2.03      0.67         0.01
  WS02006110WS02006113        0.01      0.01      2.02      0.01         0.01
  WS02006111WS02006112        0.01      0.01      2.34      0.01         0.01
  WS02006112WS02006115        0.01      0.01      0.71      0.01         0.01
  WS02006228WS02006109        2.01      2.03      2.01      2.52         2.01
  WS02006229WS02006228        2.01      2.01      2.01      2.23         2.00
  WS02006230WS02006229        2.08      2.17      2.08      4.08         2.08
  WS02006231WS02006230        0.55      0.55      0.76      3.65         0.01
  WS02006232WS02006231        0.70      0.70      2.03      0.78         0.01
  WS02006234WS02006232        1.95      1.95      2.03      0.77         0.75
  WS02006235WS02006234        1.09      1.10      1.97      3.55         0.02
  WS02006238WS02006235        1.99      1.99      2.04      0.01         0.01
  WS02006239WS02006238        2.01      2.03      2.01      2.10         1.84
  WS02006240WS02006239        1.98      2.01      1.98      2.10         1.74
  WS02006242WS02006240        2.01      2.01      2.05      2.24         0.01
  WS02006243WS02006242        2.00      2.00      2.02      0.01         0.06
  WS02006245WS02006243        2.00      2.00      2.00      1.55         1.44
  WS02006247WS02006245        1.99      2.00      1.99      3.29         1.98
  WS02006248WS02006247        1.99      1.99      2.00      0.01         0.06
  WS02006249WS02006248        1.99      1.99      1.99      3.26         0.01
  WS02006251WS02006249        1.98      1.98      1.99      2.19         1.90
  WS02006252WS02006251        2.25      2.25      2.25      2.25         0.01
  WS02006256WS02006235        3.54      3.58      5.21      1.06         0.01
  YS02001580YS02001583        0.60      0.60      0.65      0.01         0.01
  YS02001583YS02001586        0.60      0.60      0.74      0.01         0.01
  YS02001586YS02001590        0.74      0.74      0.81      0.01         0.01
  YS02001590YS02001593        0.82      0.82      0.83      0.85         0.01
  YS02001593YS02001596        0.83      0.83      0.94      0.01         0.01
  YS02001596YS02001600        0.99      0.99      1.11      0.01         0.01
  YS02001600YS02001601        1.17      1.17      1.43      0.01         0.01
  YS02001601YS02001602        1.33      1.33      1.47      1.11         0.01
  YS02001602YS02001605        1.28      1.28      1.33      2.31         0.01
  YS02001605YS02001607        1.23      1.28      1.23      1.40         1.23
  YS02001607YS02001610        0.80      0.80      0.82      0.01         0.01
  YS02001610YS02001613        0.79      0.79      0.82      0.01         0.01
  YS02001613YS02001616        0.74      0.74      0.79      0.01         0.01
  YS02001616YS02001619        0.73      0.73      0.74      0.01         0.01
  YS02001619YS02001622        0.73      0.73      0.73      0.83         0.70
  YS02001622YS02001625        0.73      0.73      0.92      0.01         0.01
  YS02001625YS02001629        0.68      0.68      0.92      0.01         0.01
  YS02001629YS02163301        0.91      0.91      0.93      0.15         0.18
  YS02001633YS02163601        0.94      0.94      0.98      0.36         0.35
  YS02001641YS02001644        0.85      0.88      0.85      1.51         0.83
  YS02001644YS02001647        0.63      0.63      0.85      0.03         0.01
  YS02001647YS02001649        0.63      0.63      0.74      0.01         0.01
  YS02001649YS02001757        0.74      0.74      0.81      0.11         0.07
  YS02001652YS02001649        0.56      0.56      0.74      0.01         0.01
  YS02001655YS02001652        0.39      0.39      0.54      0.01         0.01
  YS02001658YS02001655        0.20      0.20      0.39      0.01         0.01
  YS02001661YS02001658        0.01      0.01      0.20      0.01         0.01
  YS02001664YS02001661        0.01      0.01      0.04      0.01         0.01
  YS02001745YS02001748        0.01      0.01      0.14      0.01         0.01
  YS02001748YS02001751        0.18      0.18      0.28      0.01         0.01
  YS02001751YS02001754        0.28      0.28      0.45      0.01         0.01
  YS02001754YS02001757        0.49      0.49      0.81      0.01         0.01
  YS02001757CaochengTiaoxuchi        0.79      0.81      1.91      0.37         0.32
  YS02001759YS02001757        0.71      0.71      0.81      0.01         0.01
  YS02001762YS02001759        0.67      0.67      0.71      0.01         0.02
  YS02001765YS02001762        0.63      0.63      0.67      0.01         0.01
  YS02001767YS02001765        0.59      0.60      0.63      0.01         0.02
  YS02001770YS02001767        0.59      0.59      0.60      0.53         0.42
  YS02001774YS02001770        0.57      0.57      0.66      0.01         0.01
  YS02001779YS02001774        0.44      0.44      0.66      0.01         0.01
  YS02001783YS02001784        0.51      0.53      0.51      0.70         0.51
  YS02001784YS02001785        0.40      0.51      0.40      0.95         0.40
  YS02001786YS02001788        0.01      0.40      0.01      0.81         0.01
  YS02001790YS02001791        0.01      0.01      0.01      0.49         0.01
  YS02001793JiankangQianchi        0.01      0.01      7.66      0.01         0.01
  YS02001882YS02001884        0.47      0.47      0.49      0.01         0.01
  YS02001884YS02001887        0.51      0.51      0.52      0.01         0.01
  YS02001887YS02001890        0.54      0.54      0.55      0.09         0.01
  YS02001890YS02001895        0.46      0.46      0.57      0.01         0.01
  YS02001895YS02001898        0.46      0.46      0.46      0.01         0.01
  YS02001898YS02001901        0.47      0.47      0.51      0.01         0.01
  YS02001901YS02001904        0.50      0.50      0.51      0.01         0.01
  YS02001904YS02001907        0.50      0.50      0.79      0.01         0.01
  YS02001907YS02006553        0.96      0.96      1.03      0.01         0.01
  YS02001910YS02001907        0.57      0.57      0.77      0.01         0.01
  YS02001915YS02001910        0.47      0.47      0.57      0.01         0.01
  YS02001918YS02001915        0.38      0.38      0.47      0.01         0.01
  YS02001920YS02001918        0.38      0.38      0.40      0.01         0.01
  YS02001923YS02001920        0.34      0.34      0.40      0.01         0.01
  YS02001926YS02001923        0.04      0.05      0.10      0.01         0.01
  YS02001929YS02001926        0.01      0.01      0.10      0.01         0.01
  YS02006553YS02006556        0.66      0.66      0.79      0.01         0.01
  YS02006556YS02006558        0.73      0.73      0.81      0.01         0.01
  YS02006558YS02006561        0.42      0.65      0.42      0.90         0.42
  YS02006561YS02001783        0.35      0.35      0.53      0.01         0.01
  YS02163301YS02001633        0.93      0.93      0.96      0.01         0.01
  YS02163601YS02164001        0.88      0.88      0.98      0.10         0.01
  YS02164001YS02001641        0.88      0.88      0.88      0.73         0.65
  
  
  ***************
  Pumping Summary
  ***************
  
  ---------------------------------------------------------------------------------------------------------
                                                  Min       Avg       Max     Total     Power    % Time Off
                        Percent   Number of      Flow      Flow      Flow    Volume     Usage    Pump Curve
  Pump                 Utilized   Start-Ups       LPS       LPS       LPS  10^6 ltr     Kw-hr    Low   High
  ---------------------------------------------------------------------------------------------------------
  CC-R1                   17.71           3      0.00    683.00    683.00     3.483     65.15    0.0   14.6
  CC-R2                   15.23           3      0.00    683.00    683.00     2.996     55.86    0.0   27.4
  CC-S1                   41.83           6      0.00    200.00    200.00     2.409     13.98    0.0    0.0
  CC-S2                   28.12           3      0.00    200.00    200.00     1.620      9.22    0.0    0.0
  JK-R1                    5.71          10      0.00   1000.00   1000.00     1.644     17.40    0.0    0.0
  JK-R2                    4.86           8      0.00   1000.00   1000.00     1.400     12.70    0.0    0.0
  JK-S                    13.15          18      0.00    300.00    300.00     1.136     16.57    0.0    0.0
  

  Analysis begun on:  Tue Apr 15 14:18:38 2025
  Analysis ended on:  Tue Apr 15 14:18:40 2025
  Total elapsed time: 00:00:02