
  EPA STORM WATER MANAGEMENT MODEL - VERSION 5.2 (Build 5.2.4)
  PYSWMM TOOLKIT API - VERSION v1.0 (2023-11-27)
  ------------------------------------------------------------

  WARNING 04: minimum elevation drop used for Conduit WS02004404WS02004405
  WARNING 03: negative offset ignored for Link YS02001904YS02001907
  
  ****************
  Analysis Options
  ****************
  Flow Units ............... LPS
  Process Models:
    Rainfall/Runoff ........ YES
    RDII ................... NO
    Snowmelt ............... NO
    Groundwater ............ NO
    Flow Routing ........... YES
    Ponding Allowed ........ NO
    Water Quality .......... NO
  Infiltration Method ...... HORTON
  Flow Routing Method ...... DYNWAVE
  Surcharge Method ......... EXTRAN
  Starting Date ............ 08/28/2015 08:00:00
  Ending Date .............. 08/28/2015 16:00:00
  Antecedent Dry Days ...... 8.0
  Report Time Step ......... 00:01:00
  Wet Time Step ............ 00:01:00
  Dry Time Step ............ 00:01:00
  Routing Time Step ........ 30.00 sec
  Variable Time Step ....... YES
  Maximum Trials ........... 8
  Number of Threads ........ 4
  Head Tolerance ........... 0.001500 m
  
  
  **************************        Volume         Depth
  Runoff Quantity Continuity     hectare-m            mm
  **************************     ---------       -------
  Total Precipitation ......         3.098        93.389
  Evaporation Loss .........         0.000         0.000
  Infiltration Loss ........         0.104         3.121
  Surface Runoff ...........         2.962        89.291
  Final Storage ............         0.033         0.996
  Continuity Error (%) .....        -0.021
  
  
  **************************        Volume        Volume
  Flow Routing Continuity        hectare-m      10^6 ltr
  **************************     ---------     ---------
  Dry Weather Inflow .......         0.025         0.251
  Wet Weather Inflow .......         2.962        29.616
  Groundwater Inflow .......         0.000         0.000
  RDII Inflow ..............         0.000         0.000
  External Inflow ..........         0.083         0.834
  External Outflow .........         1.742        17.424
  Flooding Loss ............         1.293        12.934
  Evaporation Loss .........         0.000         0.000
  Exfiltration Loss ........         0.000         0.000
  Initial Stored Volume ....         0.243         2.431
  Final Stored Volume ......         0.281         2.811
  Continuity Error (%) .....        -0.113
  
  
  *************************
  Highest Continuity Errors
  *************************
  Node YS02001583 (-6.64%)
  Node YS02001884 (4.94%)
  
  
  ***************************
  Time-Step Critical Elements
  ***************************
  Link WS02006252WS02006251 (47.51%)
  Link WS02004404WS02004405 (14.84%)
  Link WS02006238WS02006235 (10.02%)
  Link YS02001791YS02001793 (8.39%)
  Link WS02006235WS02006234 (6.73%)
  
  
  ********************************
  Highest Flow Instability Indexes
  ********************************
  Link WS02006113WS02006111 (46)
  Link WS02006111WS02006112 (26)
  Link WS02004404WS02004405 (20)
  Link WS02004403WS02004404 (18)
  Link WS02006238WS02006235 (17)
  
  
  *********************************
  Most Frequent Nonconverging Nodes
  *********************************
  Node CC-1 (10.03%)
  Node CC-2 (10.03%)
  Node JK-1 (10.03%)
  Node JK-2 (10.03%)
  Node WSC (10.03%)
  
  
  *************************
  Routing Time Step Summary
  *************************
  Minimum Time Step           :     0.02 sec
  Average Time Step           :     1.97 sec
  Maximum Time Step           :     7.04 sec
  % of Time in Steady State   :     0.00
  Average Iterations per Step :     2.99
  % of Steps Not Converging   :    10.03
  Time Step Frequencies       :
     30.000 - 13.228 sec      :     0.00 %
     13.228 -  5.833 sec      :     8.86 %
      5.833 -  2.572 sec      :    18.10 %
      2.572 -  1.134 sec      :    20.25 %
      1.134 -  0.500 sec      :    52.79 %
  
  
  ***************************
  Subcatchment Runoff Summary
  ***************************
  
  ------------------------------------------------------------------------------------------------------------------------------
                            Total      Total      Total      Total     Imperv       Perv      Total       Total     Peak  Runoff
                           Precip      Runon       Evap      Infil     Runoff     Runoff     Runoff      Runoff   Runoff   Coeff
  Subcatchment                 mm         mm         mm         mm         mm         mm         mm    10^6 ltr      LPS
  ------------------------------------------------------------------------------------------------------------------------------
  sub60                     93.39       0.00       0.00       1.87      80.99       9.34      90.33        1.19   786.48   0.967
  sub61                     93.39       0.00       0.00       2.71      76.39      13.17      89.56        1.64  1093.18   0.959
  sub62                     93.39       0.00       0.00       1.24      84.64       6.23      90.87        2.49  1558.87   0.973
  sub63                     93.39       0.00       0.00       5.00      65.34      22.09      87.43        1.98  1256.16   0.936
  sub64                     93.39       0.00       0.00       2.53      78.18      11.48      89.66        2.15  1287.55   0.960
  sub65                     93.39       0.00       0.00       2.19      80.00       9.96      89.96        2.48  1440.62   0.963
  sub66                     93.39       0.00       0.00       6.21      65.23      20.88      86.11        4.02  1953.11   0.922
  sub67                     93.39       0.00       0.00       1.20      84.68       6.28      90.96        1.69  1178.24   0.974
  sub68                     93.39       0.00       0.00       2.24      79.13      10.83      89.97        2.48  1594.35   0.963
  sub69                     93.39       0.00       0.00       2.02      79.27      11.99      91.27        3.38  1913.98   0.977
  sub70                     93.39       0.00       0.00       6.77      61.47      24.99      86.46        2.50  1098.44   0.926
  sub71                     93.39       0.00       0.00       1.28      84.59       6.20      90.79        2.37  1388.88   0.972
  sub72                     93.39       0.00       0.00       1.14      85.45       5.40      90.85        1.25   680.86   0.973
  
  
  ******************
  Node Depth Summary
  ******************
  
  ---------------------------------------------------------------------------------
                                 Average  Maximum  Maximum  Time of Max    Reported
                                   Depth    Depth      HGL   Occurrence   Max Depth
  Node                 Type       Meters   Meters   Meters  days hr:min      Meters
  ---------------------------------------------------------------------------------
  WS02003060           JUNCTION     0.24     0.38     5.32     0  02:46        0.38
  WS02003066           JUNCTION     0.20     0.30     5.85     0  02:45        0.30
  WS02003067           JUNCTION     0.51     0.70     6.02     0  02:45        0.70
  WS02003069           JUNCTION     0.27     0.43     5.02     0  02:46        0.43
  WS02003072           JUNCTION     0.33     0.50     4.87     0  02:44        0.50
  WS02003073           JUNCTION     0.19     0.30     4.36     0  02:45        0.30
  WS02004401           JUNCTION     0.60     0.88     6.88     0  02:42        0.88
  WS02004402           JUNCTION     0.64     0.90     6.86     0  02:46        0.90
  WS02004403           JUNCTION     0.66     0.92     6.85     0  02:44        0.92
  WS02004404           JUNCTION     0.74     1.04     6.89     0  02:41        1.01
  WS02004405           JUNCTION     0.72     0.97     6.82     0  02:40        0.96
  WS02004406           JUNCTION     0.73     0.96     6.79     0  02:40        0.96
  WS02004407           JUNCTION     0.18     0.30     6.61     0  02:41        0.30
  WS02004409           JUNCTION     0.40     0.67     6.44     0  02:43        0.67
  WS02004410           JUNCTION     0.42     0.68     6.40     0  02:44        0.68
  WS02004411           JUNCTION     0.44     0.69     6.37     0  02:44        0.69
  WS02004412           JUNCTION     0.47     0.70     6.34     0  02:46        0.70
  WS02004413           JUNCTION     0.63     0.86     6.33     0  02:45        0.86
  WS02006109           JUNCTION     0.65     1.27     7.89     0  02:31        1.01
  WS02006110           JUNCTION     0.66     1.31     7.90     0  02:31        0.96
  WS02006111           JUNCTION     0.18     0.29     6.99     0  02:28        0.29
  WS02006112           JUNCTION     0.76     1.09     6.97     0  02:42        1.08
  WS02006113           JUNCTION     0.27     0.46     7.35     0  03:59        0.46
  WS02006115           JUNCTION     0.49     0.77     6.91     0  02:41        0.77
  WS02006116           JUNCTION     0.57     0.86     6.90     0  02:42        0.85
  WS02006228           JUNCTION     0.65     1.55     8.20     0  02:31        1.04
  WS02006229           JUNCTION     0.62     1.63     8.33     0  02:31        1.03
  WS02006230           JUNCTION     0.62     1.97     8.72     0  02:31        1.18
  WS02006231           JUNCTION     0.43     1.62     8.74     0  02:31        0.95
  WS02006232           JUNCTION     0.56     1.59     8.63     0  02:31        1.21
  WS02006234           JUNCTION     0.49     1.44     8.60     0  02:31        1.31
  WS02006235           JUNCTION     0.53     1.49     8.65     0  02:25        1.44
  WS02006238           JUNCTION     0.55     1.54     8.68     0  02:25        1.49
  WS02006239           JUNCTION     0.52     1.51     8.71     0  02:25        1.50
  WS02006240           JUNCTION     0.49     1.47     8.76     0  02:25        1.46
  WS02006242           JUNCTION     0.56     1.50     8.77     0  02:25        1.50
  WS02006243           JUNCTION     0.47     1.35     8.77     0  02:25        1.35
  WS02006245           JUNCTION     0.47     1.28     8.77     0  02:25        1.27
  WS02006247           JUNCTION     0.49     1.24     8.74     0  02:25        1.24
  WS02006248           JUNCTION     0.45     1.10     8.69     0  01:56        1.10
  WS02006249           JUNCTION     0.49     1.09     8.69     0  01:51        1.09
  WS02006251           JUNCTION     0.49     1.44     9.11     0  03:35        1.27
  WS02006252           JUNCTION     0.36     1.50     9.74     0  00:00        0.83
  WS02006256           JUNCTION     1.03     2.35     9.28     0  00:00        2.35
  WSF200               JUNCTION     0.17     0.29     5.52     0  02:45        0.29
  YS02001580           JUNCTION     0.11     1.05     9.59     0  01:48        0.89
  YS02001583           JUNCTION     0.15     1.14     9.64     0  01:48        0.82
  YS02001586           JUNCTION     0.23     1.13     9.30     0  01:48        1.13
  YS02001590           JUNCTION     0.33     1.40     9.26     0  01:48        1.39
  YS02001593           JUNCTION     0.26     1.34     9.20     0  01:48        1.28
  YS02001596           JUNCTION     0.36     1.70     9.11     0  01:48        1.69
  YS02001600           JUNCTION     0.43     1.87     9.00     0  01:48        1.86
  YS02001601           JUNCTION     0.62     2.06     8.90     0  01:47        2.06
  YS02001602           JUNCTION     0.52     1.87     8.77     0  01:50        1.87
  YS02001605           JUNCTION     0.49     1.78     8.68     0  01:51        1.77
  YS02001607           JUNCTION     0.48     1.65     8.49     0  02:04        1.65
  YS02001610           JUNCTION     0.52     1.68     8.48     0  01:51        1.68
  YS02001613           JUNCTION     0.48     1.70     8.54     0  02:07        1.70
  YS02001616           JUNCTION     0.41     1.61     8.52     0  01:55        1.61
  YS02001619           JUNCTION     0.39     1.61     8.54     0  01:55        1.61
  YS02001622           JUNCTION     0.38     1.60     8.51     0  02:07        1.60
  YS02001625           JUNCTION     0.65     1.78     8.38     0  01:51        1.78
  YS02001629           JUNCTION     0.51     1.85     8.40     0  01:52        1.85
  YS02001633           JUNCTION     0.59     2.08     8.53     0  01:56        2.08
  YS02001641           JUNCTION     0.57     2.07     8.50     0  02:07        1.95
  YS02001644           JUNCTION     0.57     1.92     8.35     0  01:53        1.92
  YS02001647           JUNCTION     0.36     1.80     8.41     0  02:07        1.79
  YS02001649           JUNCTION     0.41     2.05     8.44     0  02:07        2.05
  YS02001652           JUNCTION     0.30     1.90     8.49     0  02:07        1.90
  YS02001655           JUNCTION     0.24     1.82     8.67     0  01:54        1.82
  YS02001658           JUNCTION     0.18     2.05     9.19     0  01:54        2.05
  YS02001661           JUNCTION     0.19     1.38     8.78     0  01:57        1.32
  YS02001664           JUNCTION     0.07     0.85     8.77     0  02:01        0.84
  YS02001745           JUNCTION     0.10     0.98     8.50     0  02:01        0.98
  YS02001748           JUNCTION     0.17     1.48     8.55     0  01:54        1.38
  YS02001751           JUNCTION     0.21     1.55     8.43     0  02:01        1.55
  YS02001754           JUNCTION     0.27     1.79     8.40     0  02:07        1.78
  YS02001757           JUNCTION     0.45     2.16     8.42     0  02:07        2.10
  YS02001759           JUNCTION     0.38     2.17     8.53     0  02:07        2.10
  YS02001762           JUNCTION     0.37     2.15     8.55     0  02:07        2.05
  YS02001765           JUNCTION     0.35     2.10     8.55     0  02:07        2.06
  YS02001767           JUNCTION     0.34     2.03     8.52     0  01:56        2.03
  YS02001770           JUNCTION     0.35     1.95     8.44     0  01:52        1.95
  YS02001774           JUNCTION     0.42     2.05     8.47     0  01:52        2.03
  YS02001779           JUNCTION     0.25     1.68     8.37     0  01:52        1.68
  YS02001783           JUNCTION     0.26     1.45     7.59     0  02:07        1.29
  YS02001784           JUNCTION     0.27     1.24     7.30     0  02:07        1.18
  YS02001786           JUNCTION     0.23     0.96     6.99     0  02:07        0.88
  YS02001788           JUNCTION     0.16     0.63     6.60     0  01:59        0.63
  YS02001790           JUNCTION     0.19     0.73     6.38     0  02:00        0.72
  YS02001791           JUNCTION     0.12     0.44     5.91     0  01:59        0.44
  YS02001793           JUNCTION     0.07     0.30     5.14     0  02:15        0.30
  YS02001882           JUNCTION     0.33     1.83     8.55     0  02:07        1.78
  YS02001884           JUNCTION     0.43     1.93     8.55     0  02:07        1.89
  YS02001887           JUNCTION     0.50     2.00     8.54     0  01:56        2.00
  YS02001890           JUNCTION     0.53     1.81     8.32     0  01:52        1.81
  YS02001895           JUNCTION     0.30     1.67     8.41     0  02:07        1.67
  YS02001898           JUNCTION     0.31     1.62     8.35     0  02:07        1.62
  YS02001901           JUNCTION     0.43     1.68     8.29     0  01:52        1.67
  YS02001904           JUNCTION     0.41     1.67     8.30     0  02:07        1.67
  YS02001907           JUNCTION     0.73     1.96     8.25     0  01:52        1.96
  YS02001910           JUNCTION     0.53     2.01     8.52     0  02:04        2.00
  YS02001915           JUNCTION     0.34     2.00     8.72     0  01:56        2.00
  YS02001918           JUNCTION     0.20     1.81     8.88     0  01:53        1.72
  YS02001920           JUNCTION     0.27     2.08     9.08     0  01:53        1.79
  YS02001923           JUNCTION     0.15     2.03     9.29     0  01:53        1.58
  YS02001926           JUNCTION     0.18     1.90     9.35     0  01:53        1.41
  YS02001929           JUNCTION     0.11     1.78     9.47     0  01:53        1.20
  YS02006553           JUNCTION     0.73     2.06     8.34     0  02:07        2.04
  YS02006556           JUNCTION     0.71     2.27     8.58     0  01:56        2.27
  YS02006558           JUNCTION     0.75     2.35     8.62     0  01:56        2.35
  YS02006561           JUNCTION     0.17     1.21     7.87     0  02:07        0.92
  YS02163301           JUNCTION     0.53     1.96     8.48     0  02:07        1.95
  YS02163601           JUNCTION     0.63     2.08     8.48     0  02:07        2.03
  YS02164001           JUNCTION     0.56     2.10     8.56     0  02:07        1.95
  CC-1                 OUTFALL      0.00     0.00     0.00     0  00:00        0.00
  CC-2                 OUTFALL      0.00     0.00     0.00     0  00:00        0.00
  JK-1                 OUTFALL      0.00     0.00     0.00     0  00:00        0.00
  JK-2                 OUTFALL      0.00     0.00     0.00     0  00:00        0.00
  WSC                  OUTFALL      0.19     0.30     0.97     0  02:49        0.30
  CC-storage           STORAGE      1.04     1.90     7.40     0  02:34        1.90
  JK-storage           STORAGE      3.08     4.24     5.04     0  02:05        4.20
  
  
  *******************
  Node Inflow Summary
  *******************
  
  -------------------------------------------------------------------------------------------------
                                  Maximum  Maximum                  Lateral       Total        Flow
                                  Lateral    Total  Time of Max      Inflow      Inflow     Balance
                                   Inflow   Inflow   Occurrence      Volume      Volume       Error
  Node                 Type           LPS      LPS  days hr:min    10^6 ltr    10^6 ltr     Percent
  -------------------------------------------------------------------------------------------------
  WS02003060           JUNCTION     16.53   555.85     0  02:45       0.476        5.64       0.064
  WS02003066           JUNCTION      0.00   538.70     0  02:45           0        5.17       0.038
  WS02003067           JUNCTION      0.00   538.55     0  02:45           0        5.18       0.097
  WS02003069           JUNCTION      0.32   555.68     0  02:46     0.00922        5.65       0.103
  WS02003072           JUNCTION      0.00   555.11     0  02:44           0        5.64       0.157
  WS02003073           JUNCTION      1.82   556.80     0  02:45      0.0524        5.69       0.119
  WS02004401           JUNCTION      0.00   540.03     0  02:42           0         5.3       0.231
  WS02004402           JUNCTION      0.00   540.10     0  02:41           0        5.28       0.231
  WS02004403           JUNCTION      0.00   539.82     0  02:43           0        5.27       0.221
  WS02004404           JUNCTION      0.16   559.16     0  02:44     0.00467        5.27       0.182
  WS02004405           JUNCTION      0.04   605.27     0  02:43      0.0011        5.26       0.191
  WS02004406           JUNCTION      0.00   546.54     0  02:40           0        5.25       0.445
  WS02004407           JUNCTION      0.00   540.60     0  02:43           0        5.22       0.048
  WS02004409           JUNCTION      0.00   539.90     0  02:41           0        5.22       0.098
  WS02004410           JUNCTION      0.00   539.33     0  02:44           0        5.22       0.129
  WS02004411           JUNCTION      0.00   539.11     0  02:44           0        5.21       0.150
  WS02004412           JUNCTION      0.00   539.11     0  02:44           0         5.2       0.187
  WS02004413           JUNCTION      0.00   539.04     0  02:44           0        5.19       0.316
  WS02006109           JUNCTION      1.23   565.96     0  02:31      0.0354        5.36       0.200
  WS02006110           JUNCTION      0.00   565.64     0  03:59           0        5.35       0.160
  WS02006111           JUNCTION      0.00   563.07     0  03:01           0        5.33       0.025
  WS02006112           JUNCTION      0.00   543.10     0  02:28           0        5.33       0.376
  WS02006113           JUNCTION      0.00   576.49     0  03:59           0        5.34       0.055
  WS02006115           JUNCTION      0.00   558.35     0  03:59           0        5.31       0.166
  WS02006116           JUNCTION      0.00   543.14     0  04:00           0         5.3       0.149
  WS02006228           JUNCTION      0.00   564.50     0  02:31           0        5.33       0.089
  WS02006229           JUNCTION      0.00   564.74     0  02:31           0        5.33       0.117
  WS02006230           JUNCTION     10.28   591.38     0  02:25       0.296        5.34       0.087
  WS02006231           JUNCTION      0.00   575.28     0  02:00           0        5.04      -0.053
  WS02006232           JUNCTION      0.00   574.60     0  02:00           0        5.05       0.308
  WS02006234           JUNCTION      0.00   569.89     0  02:00           0        5.04      -0.209
  WS02006235           JUNCTION      0.00   562.81     0  02:00           0        5.12       0.251
  WS02006238           JUNCTION      0.00   424.15     0  03:35           0        4.09      -0.065
  WS02006239           JUNCTION      0.00   425.64     0  03:35           0        4.05      -0.010
  WS02006240           JUNCTION      0.00   424.89     0  03:35           0        4.02       0.012
  WS02006242           JUNCTION      0.00   424.26     0  03:35           0           4       0.008
  WS02006243           JUNCTION      0.00   423.75     0  03:35           0        3.99       0.071
  WS02006245           JUNCTION      0.00   423.82     0  03:35           0           4       0.277
  WS02006247           JUNCTION      0.00   424.62     0  03:35           0           4       0.043
  WS02006248           JUNCTION      0.00   424.30     0  03:35           0        4.01       0.072
  WS02006249           JUNCTION      0.00   459.02     0  00:00           0        4.27       0.250
  WS02006251           JUNCTION      0.08   408.38     0  03:35     0.00222        4.27      -0.036
  WS02006252           JUNCTION      0.00   400.00     0  00:00           0        4.27      -0.028
  WS02006256           JUNCTION      0.00   300.00     0  00:00           0        1.55      -0.731
  WSF200               JUNCTION      0.00   538.81     0  02:45           0        5.17       0.019
  YS02001580           JUNCTION      0.00    79.21     0  01:48           0     0.00404      -0.423
  YS02001583           JUNCTION      0.00   133.79     0  01:47           0      0.0152      -6.229
  YS02001586           JUNCTION   1098.44  1098.47     0  02:04         2.5        2.51       0.044
  YS02001590           JUNCTION      0.00   318.39     0  02:07           0        1.64      -0.020
  YS02001593           JUNCTION      0.00   318.55     0  02:07           0        1.64       0.001
  YS02001596           JUNCTION      0.00   318.11     0  02:17           0        1.64      -0.010
  YS02001600           JUNCTION      0.00   318.02     0  02:18           0        1.64       0.008
  YS02001601           JUNCTION   1913.98  2231.66     0  02:02        3.38        5.01       0.019
  YS02001602           JUNCTION      0.00   505.72     0  01:47           0        2.63       0.021
  YS02001605           JUNCTION      0.00   506.23     0  01:47           0        2.45       0.025
  YS02001607           JUNCTION      0.00   506.31     0  01:47           0        2.45       0.083
  YS02001610           JUNCTION      0.00   953.58     0  02:05           0        3.06       0.082
  YS02001613           JUNCTION      0.00   617.19     0  02:05           0        2.34       0.070
  YS02001616           JUNCTION      0.00   616.95     0  02:05           0        2.34       0.022
  YS02001619           JUNCTION   1953.11  1953.11     0  02:03        4.02        5.74       0.002
  YS02001622           JUNCTION      0.00  1054.01     0  02:05           0        5.03      -0.000
  YS02001625           JUNCTION      0.00  1504.94     0  02:06           0         5.5       0.184
  YS02001629           JUNCTION      0.00   917.24     0  01:51           0        3.85       0.010
  YS02001633           JUNCTION   1440.82  1440.82     0  02:02        2.48        5.74       0.061
  YS02001641           JUNCTION      0.00  1326.17     0  01:51           0        5.16       0.056
  YS02001644           JUNCTION   1287.59  2298.28     0  02:02        2.15        7.37       0.043
  YS02001647           JUNCTION      0.00  1696.46     0  01:51           0        6.01       0.006
  YS02001649           JUNCTION      0.00  1874.26     0  01:50           0        7.93       0.002
  YS02001652           JUNCTION      0.00  1267.94     0  02:01           0        1.99      -0.076
  YS02001655           JUNCTION      0.15  1267.47     0  02:01     0.00443        1.99       0.033
  YS02001658           JUNCTION      0.00  1267.63     0  02:01           0        1.98      -0.018
  YS02001661           JUNCTION      0.00  1266.42     0  02:01           0        1.98      -0.002
  YS02001664           JUNCTION   1256.16  1256.16     0  02:02        1.98        1.98      -0.007
  YS02001745           JUNCTION    786.49   786.49     0  02:02        1.19        1.19       0.117
  YS02001748           JUNCTION      0.04   800.10     0  02:01      0.0013        1.19      -0.213
  YS02001751           JUNCTION      0.01   800.26     0  02:01    0.000317        1.19       0.099
  YS02001754           JUNCTION      0.26   801.64     0  02:01     0.00749        1.21      -0.117
  YS02001757           JUNCTION      0.00  3173.56     0  01:59           0        12.5       0.012
  YS02001759           JUNCTION   1093.22  1378.43     0  02:01        1.64        3.47      -0.006
  YS02001762           JUNCTION      0.00   705.34     0  01:56           0        1.82       0.005
  YS02001765           JUNCTION      0.00   703.07     0  01:56           0        1.82      -0.000
  YS02001767           JUNCTION      0.54   703.26     0  01:55      0.0154        1.82       0.007
  YS02001770           JUNCTION   1559.02  1559.02     0  02:02        2.49        2.54      -0.015
  YS02001774           JUNCTION      0.00   851.94     0  02:04           0       0.649       0.138
  YS02001779           JUNCTION      0.01   851.49     0  02:05    0.000144       0.605      -0.124
  YS02001783           JUNCTION      0.00  1171.21     0  02:01           0        4.97       0.003
  YS02001784           JUNCTION      1.06  1172.67     0  02:01      0.0305           5       0.010
  YS02001786           JUNCTION      0.06  1173.16     0  02:01     0.00162           5       0.014
  YS02001788           JUNCTION      0.07  1174.08     0  02:01     0.00204           5       0.006
  YS02001790           JUNCTION      0.15  1184.79     0  02:00     0.00446        5.01       0.032
  YS02001791           JUNCTION      0.00  1307.62     0  02:00           0        5.01      -0.038
  YS02001793           JUNCTION      0.00  1263.37     0  02:02           0        5.01       0.002
  YS02001882           JUNCTION      0.00    33.10     0  01:50           0       0.013       4.718
  YS02001884           JUNCTION      0.00    60.77     0  01:49           0      0.0491       5.201
  YS02001887           JUNCTION   1178.69  1179.26     0  02:01         1.7        1.74       0.249
  YS02001890           JUNCTION      0.00  1180.06     0  02:01           0         1.7       0.288
  YS02001895           JUNCTION      0.00   517.98     0  02:07           0         1.4       0.126
  YS02001898           JUNCTION      0.00   518.12     0  02:04           0         1.4      -0.005
  YS02001901           JUNCTION      0.00   519.12     0  02:07           0         1.4       0.242
  YS02001904           JUNCTION      0.00   519.10     0  02:07           0         1.4       0.191
  YS02001907           JUNCTION      0.00  2939.48     0  02:02           0        5.22       0.342
  YS02001910           JUNCTION      0.00  1993.13     0  02:03           0         3.7       0.191
  YS02001915           JUNCTION   1388.90  2068.38     0  02:02        2.37        3.74       0.041
  YS02001918           JUNCTION      0.00   685.27     0  02:03           0        1.39       0.001
  YS02001920           JUNCTION      2.87   684.99     0  02:03      0.0827        1.37       0.059
  YS02001923           JUNCTION      0.04   681.81     0  02:03     0.00109        1.27      -0.022
  YS02001926           JUNCTION      0.05   681.59     0  02:03      0.0015        1.26      -0.011
  YS02001929           JUNCTION    680.86   680.86     0  02:03        1.25        1.25      -0.043
  YS02006553           JUNCTION      0.00   796.87     0  02:24           0        2.76       0.425
  YS02006556           JUNCTION      0.00   797.25     0  02:24           0        2.77       0.286
  YS02006558           JUNCTION   1595.23  1595.23     0  02:02         2.5        5.12       0.064
  YS02006561           JUNCTION      0.00  1177.39     0  02:07           0        4.97      -0.002
  YS02163301           JUNCTION      0.00   917.68     0  01:51           0        3.85       0.040
  YS02163601           JUNCTION      0.11  1329.04     0  01:51     0.00317        5.15       0.098
  YS02164001           JUNCTION      0.00  1327.89     0  01:51           0        5.15       0.045
  CC-1                 OUTFALL       0.00   683.00     0  00:00           0        4.58       0.000
  CC-2                 OUTFALL       0.00   683.00     0  00:00           0        3.69       0.000
  JK-1                 OUTFALL       0.00  1000.00     0  00:00           0        2.98       0.000
  JK-2                 OUTFALL       0.00  1000.00     0  00:00           0       0.493       0.000
  WSC                  OUTFALL       0.00   556.65     0  02:49           0        5.68       0.000
  CC-storage           STORAGE       0.00  3173.23     0  02:00           0        14.8      -0.057
  JK-storage           STORAGE       0.00  1252.40     0  01:58           0        5.16      -0.032
  
  
  **********************
  Node Surcharge Summary
  **********************
  
  Surcharging occurs when water rises above the top of the highest conduit.
  ---------------------------------------------------------------------
                                               Max. Height   Min. Depth
                                   Hours       Above Crown    Below Rim
  Node                 Type      Surcharged         Meters       Meters
  ---------------------------------------------------------------------
  WS02004404           JUNCTION        0.02          0.038        2.742
  WS02006109           JUNCTION        2.17          0.448        1.372
  WS02006110           JUNCTION        0.86          0.401        1.449
  WS02006112           JUNCTION        1.06          0.089        1.591
  WS02006228           JUNCTION        2.17          0.718        1.482
  WS02006229           JUNCTION        2.17          0.832        1.618
  WS02006230           JUNCTION        0.87          0.893        0.677
  WS02006231           JUNCTION        1.03          0.905        0.625
  WS02006232           JUNCTION        2.21          0.889        0.591
  WS02006234           JUNCTION        1.31          0.721        0.519
  WS02006235           JUNCTION        2.13          0.780        0.510
  WS02006238           JUNCTION        2.18          0.816        0.614
  WS02006239           JUNCTION        2.14          0.766        0.524
  WS02006240           JUNCTION        2.16          0.760        0.630
  WS02006242           JUNCTION        2.20          0.773        0.047
  WS02006243           JUNCTION        2.16          0.645        0.125
  WS02006245           JUNCTION        2.16          0.574        0.276
  WS02006247           JUNCTION        2.17          0.533        0.227
  WS02006248           JUNCTION        2.15          0.380        0.000
  WS02006249           JUNCTION        2.16          0.390        0.000
  WS02006251           JUNCTION        1.11          0.405        0.775
  WS02006252           JUNCTION        2.31          1.100        0.000
  WS02006256           JUNCTION        5.46          2.050        0.000
  YS02001580           JUNCTION        0.89          0.450        0.000
  YS02001583           JUNCTION        0.90          0.500        0.000
  YS02001586           JUNCTION        1.06          0.510        0.000
  YS02001590           JUNCTION        1.15          0.750        0.000
  YS02001593           JUNCTION        1.16          0.721        0.119
  YS02001596           JUNCTION        1.30          0.966        0.104
  YS02001600           JUNCTION        1.44          1.190        0.000
  YS02001601           JUNCTION        1.71          1.440        0.000
  YS02001602           JUNCTION        1.62          1.270        0.000
  YS02001605           JUNCTION        1.58          1.176        0.004
  YS02001607           JUNCTION        1.17          0.646        0.034
  YS02001610           JUNCTION        1.20          0.680        0.000
  YS02001613           JUNCTION        1.17          0.700        0.000
  YS02001616           JUNCTION        1.12          0.610        0.000
  YS02001619           JUNCTION        1.10          0.610        0.000
  YS02001622           JUNCTION        1.11          0.601        0.019
  YS02001625           JUNCTION        1.30          0.780        0.000
  YS02001629           JUNCTION        1.04          0.470        0.000
  YS02001633           JUNCTION        1.34          1.060        0.000
  YS02001641           JUNCTION        1.29          1.066        0.034
  YS02001644           JUNCTION        1.27          0.920        0.000
  YS02001647           JUNCTION        1.05          0.804        0.096
  YS02001649           JUNCTION        1.20          1.050        0.000
  YS02001652           JUNCTION        0.99          0.868        0.262
  YS02001655           JUNCTION        0.79          0.821        0.379
  YS02001658           JUNCTION        0.45          1.047        0.253
  YS02001661           JUNCTION        0.16          0.305        1.085
  YS02001748           JUNCTION        0.36          0.395        0.795
  YS02001751           JUNCTION        0.64          0.553        0.647
  YS02001754           JUNCTION        0.90          0.741        0.409
  YS02001757           JUNCTION        1.26          1.163        0.047
  YS02001759           JUNCTION        1.19          1.171        0.039
  YS02001762           JUNCTION        1.16          1.150        0.000
  YS02001765           JUNCTION        1.11          1.100        0.000
  YS02001767           JUNCTION        1.07          1.030        0.000
  YS02001770           JUNCTION        1.04          0.920        0.000
  YS02001774           JUNCTION        1.14          1.050        0.000
  YS02001779           JUNCTION        0.89          0.680        0.000
  YS02001783           JUNCTION        0.75          0.647        0.953
  YS02001784           JUNCTION        0.72          0.436        1.054
  YS02001786           JUNCTION        0.60          0.158        1.272
  YS02001882           JUNCTION        0.68          0.830        0.000
  YS02001884           JUNCTION        0.70          0.870        0.000
  YS02001887           JUNCTION        0.74          0.950        0.000
  YS02001890           JUNCTION        0.76          0.760        0.000
  YS02001895           JUNCTION        0.67          0.668        0.082
  YS02001898           JUNCTION        0.66          0.588        0.152
  YS02001901           JUNCTION        0.72          0.682        0.188
  YS02001904           JUNCTION        0.71          0.671        0.179
  YS02001907           JUNCTION        1.01          0.950        0.000
  YS02001910           JUNCTION        0.79          1.014        0.086
  YS02001915           JUNCTION        0.68          1.000        0.000
  YS02001918           JUNCTION        0.58          0.810        0.000
  YS02001920           JUNCTION        0.60          1.077        0.063
  YS02001923           JUNCTION        0.25          0.820        0.000
  YS02001926           JUNCTION        0.28          0.900        0.000
  YS02001929           JUNCTION        0.12          0.780        0.000
  YS02006553           JUNCTION        1.03          1.060        0.130
  YS02006556           JUNCTION        0.90          1.225        0.125
  YS02006558           JUNCTION        0.88          1.252        0.148
  YS02006561           JUNCTION        0.55          0.406        0.744
  YS02163301           JUNCTION        1.32          0.963        0.067
  YS02163601           JUNCTION        1.37          1.080        0.000
  YS02164001           JUNCTION        1.30          1.100        0.000
  
  
  *********************
  Node Flooding Summary
  *********************
  
  Flooding refers to all water that overflows a node, whether it ponds or not.
  --------------------------------------------------------------------------
                                                             Total   Maximum
                                 Maximum   Time of Max       Flood    Ponded
                        Hours       Rate    Occurrence      Volume     Depth
  Node                 Flooded       LPS   days hr:min    10^6 ltr    Meters
  --------------------------------------------------------------------------
  WS02006248              0.02     19.98      0  02:25       0.001     0.000
  WS02006249              1.08     96.33      0  01:51       0.259     0.000
  WS02006252              0.01    245.63      0  00:00       0.000     0.000
  WS02006256              1.43    295.15      0  02:52       0.487     0.000
  YS02001580              0.01     27.40      0  01:48       0.000     0.000
  YS02001583              0.01     62.62      0  01:48       0.000     0.000
  YS02001586              0.73    780.95      0  02:04       0.862     0.000
  YS02001590              0.01      7.27      0  01:48       0.000     0.000
  YS02001600              0.01      3.55      0  01:48       0.000     0.000
  YS02001601              0.98   1833.83      0  02:02       2.385     0.000
  YS02001602              0.86     62.20      0  01:56       0.180     0.000
  YS02001610              0.77    953.25      0  02:05       1.329     0.000
  YS02001613              0.01      0.71      0  02:07       0.000     0.000
  YS02001616              0.07      1.77      0  02:02       0.000     0.000
  YS02001619              0.15    289.79      0  02:03       0.093     0.000
  YS02001625              0.75   1504.76      0  02:06       2.223     0.000
  YS02001629              0.27    308.62      0  02:02       0.130     0.000
  YS02001633              0.01      1.72      0  01:56       0.000     0.000
  YS02001644              0.38   2298.18      0  02:02       1.423     0.000
  YS02001649              0.01      5.86      0  02:07       0.000     0.000
  YS02001762              0.01     18.59      0  02:07       0.000     0.000
  YS02001765              0.01     23.45      0  02:07       0.000     0.000
  YS02001767              0.01     15.99      0  02:07       0.000     0.000
  YS02001770              0.11    438.89      0  02:02       0.098     0.000
  YS02001774              0.01     13.62      0  01:52       0.000     0.000
  YS02001779              0.33    851.31      0  02:05       0.587     0.000
  YS02001882              0.01     18.85      0  02:07       0.000     0.000
  YS02001884              0.01     11.78      0  02:07       0.000     0.000
  YS02001887              0.01      0.72      0  01:56       0.000     0.000
  YS02001890              0.30    663.48      0  02:01       0.295     0.000
  YS02001907              0.52   2939.37      0  02:02       2.570     0.000
  YS02001915              0.06     77.36      0  02:02       0.010     0.000
  YS02001918              0.01     81.48      0  01:53       0.001     0.000
  YS02001923              0.01     81.61      0  01:53       0.000     0.000
  YS02001926              0.01    217.72      0  01:53       0.000     0.000
  YS02001929              0.01    231.97      0  01:53       0.001     0.000
  YS02163601              0.01     43.80      0  02:07       0.000     0.000
  YS02164001              0.01     27.48      0  02:07       0.000     0.000
  
  
  **********************
  Storage Volume Summary
  **********************
  
  ------------------------------------------------------------------------------------------------
                         Average    Avg   Evap  Exfil     Maximum    Max    Time of Max    Maximum
                          Volume   Pcnt   Pcnt   Pcnt      Volume   Pcnt     Occurrence    Outflow
  Storage Unit           1000 m³   Full   Loss   Loss     1000 m³   Full    days hr:min        LPS
  ------------------------------------------------------------------------------------------------
  CC-storage               2.895   45.2    0.0    0.0       5.303   82.7       0  02:34    1783.53
  JK-storage               0.155   53.1    0.0    0.0       0.213   73.0       0  02:05    2300.00
  
  
  ***********************
  Outfall Loading Summary
  ***********************
  
  -----------------------------------------------------------
                         Flow       Avg       Max       Total
                         Freq      Flow      Flow      Volume
  Outfall Node           Pcnt       LPS       LPS    10^6 ltr
  -----------------------------------------------------------
  CC-1                  24.99    683.00    683.00       4.580
  CC-2                  20.33    683.00    683.00       3.689
  JK-1                  13.46   1000.00   1000.00       2.983
  JK-2                   1.87   1000.00   1000.00       0.493
  WSC                   99.96    265.93    556.65       5.680
  -----------------------------------------------------------
  System                32.12   3631.93   3922.57      17.424
  
  
  ********************
  Link Flow Summary
  ********************
  
  -----------------------------------------------------------------------------
                                 Maximum  Time of Max   Maximum    Max/    Max/
                                  |Flow|   Occurrence   |Veloc|    Full    Full
  Link                 Type          LPS  days hr:min     m/sec    Flow   Depth
  -----------------------------------------------------------------------------
  1                    CONDUIT    556.65     0  02:49      2.83    0.19    0.30
  WS02003060WS02003069 CONDUIT    555.36     0  02:46      1.64    0.22    0.34
  WS02003066WSF200     CONDUIT    538.81     0  02:45      2.85    0.09    0.22
  WS02003067WS02003066 CONDUIT    538.70     0  02:45      1.21    0.17    0.42
  WS02003069WS02003072 CONDUIT    555.11     0  02:44      1.37    0.27    0.39
  WS02003072WS02003073 CONDUIT    554.98     0  02:45      1.44    1.20    0.37
  WS02004401WS02004402 CONDUIT    540.10     0  02:41      0.98    0.65    0.89
  WS02004402WS02004403 CONDUIT    539.82     0  02:43      0.97    0.78    0.91
  WS02004403WS02004404 CONDUIT    558.99     0  02:44      0.92    0.40    0.96
  WS02004404WS02004405 CONDUIT    605.23     0  02:43      1.08    5.93    0.98
  WS02004405WS02004406 CONDUIT    546.54     0  02:40      0.99    1.08    0.96
  WS02004406WS02004407 CONDUIT    540.60     0  02:43      1.04    0.24    0.63
  WS02004407WS02004409 CONDUIT    539.90     0  02:41      1.56    0.19    0.48
  WS02004409WS02004410 CONDUIT    539.33     0  02:44      1.01    0.70    0.68
  WS02004410WS02004411 CONDUIT    539.11     0  02:44      0.95    0.74    0.69
  WS02004411WS02004412 CONDUIT    539.11     0  02:44      0.93    0.77    0.70
  WS02004412WS02004413 CONDUIT    539.04     0  02:44      0.82    0.36    0.78
  WS02004413WS02003067 CONDUIT    538.55     0  02:45      1.11    0.23    0.59
  WS02006109WS02006110 CONDUIT    565.64     0  03:59      1.13    1.09    1.00
  WS02006110WS02006113 CONDUIT    576.49     0  03:59      1.38    0.52    0.79
  WS02006111WS02006112 CONDUIT    543.10     0  02:28      1.81    0.26    0.67
  WS02006112WS02006115 CONDUIT    558.35     0  03:59      0.82    0.33    0.88
  WS02006113WS02006111 CONDUIT    563.07     0  03:01      2.47    0.67    0.46
  WS02006115WS02006116 CONDUIT    543.14     0  04:00      1.00    0.70    0.78
  WS02006116WS02004401 CONDUIT    540.03     0  02:42      0.98    0.74    0.87
  WS02006228WS02006109 CONDUIT    564.73     0  02:31      1.12    2.47    1.00
  WS02006229WS02006228 CONDUIT    564.50     0  02:31      1.14    1.87    1.00
  WS02006230WS02006229 CONDUIT    564.74     0  02:31      1.47   12.57    1.00
  WS02006231WS02006230 CONDUIT    581.10     0  02:25      1.58    8.81    1.00
  WS02006232WS02006231 CONDUIT    575.28     0  02:00      1.50    1.21    1.00
  WS02006234WS02006232 CONDUIT    574.60     0  02:00      1.49    1.16    1.00
  WS02006235WS02006234 CONDUIT    569.89     0  02:00      1.48    6.01    1.00
  WS02006238WS02006235 CONDUIT    423.36     0  02:30      1.56    0.95    1.00
  WS02006239WS02006238 CONDUIT    424.15     0  03:35      1.10    1.36    1.00
  WS02006240WS02006239 CONDUIT    425.64     0  03:35      1.24    1.34    1.00
  WS02006242WS02006240 CONDUIT    424.89     0  03:35      1.13    1.69    1.00
  WS02006243WS02006242 CONDUIT    424.26     0  03:35      1.40    0.91    1.00
  WS02006245WS02006243 CONDUIT    423.75     0  03:35      1.45    1.25    1.00
  WS02006247WS02006245 CONDUIT    423.82     0  03:35      1.43    3.36    1.00
  WS02006248WS02006247 CONDUIT    424.62     0  03:35      1.44    0.92    1.00
  WS02006249WS02006248 CONDUIT    424.30     0  03:35      1.36    2.32    1.00
  WS02006251WS02006249 CONDUIT    459.02     0  00:00      1.99    1.32    1.00
  WS02006252WS02006251 CONDUIT    408.30     0  03:35     24.61    1.50    1.00
  WS02006256WS02006235 CONDUIT    289.21     0  01:39      4.23    3.06    1.00
  WSF200WS02003060     CONDUIT    539.32     0  02:45      2.07    0.12    0.28
  YS02001580YS02001583 CONDUIT     79.21     0  01:48      0.58    0.31    1.00
  YS02001583YS02001586 CONDUIT    133.79     0  01:47      0.55    0.20    1.00
  YS02001586YS02001590 CONDUIT    318.39     0  02:07      1.25    0.56    1.00
  YS02001590YS02001593 CONDUIT    318.55     0  02:07      1.13    2.00    1.00
  YS02001593YS02001596 CONDUIT    318.11     0  02:17      1.71    0.50    1.00
  YS02001596YS02001600 CONDUIT    318.02     0  02:18      1.26    0.62    1.00
  YS02001600YS02001601 CONDUIT    317.97     0  02:29      1.12    0.55    1.00
  YS02001601YS02001602 CONDUIT    505.72     0  01:47      1.79    1.83    1.00
  YS02001602YS02001605 CONDUIT    506.23     0  01:47      1.79   10.71    1.00
  YS02001605YS02001607 CONDUIT    506.31     0  01:47      1.79    2.78    1.00
  YS02001607YS02001610 CONDUIT    508.74     0  01:46      0.65    0.48    1.00
  YS02001610YS02001613 CONDUIT    617.32     0  02:05      0.79    0.71    1.00
  YS02001613YS02001616 CONDUIT    617.19     0  02:05      0.79    0.53    1.00
  YS02001616YS02001619 CONDUIT    616.95     0  02:05      0.79    1.07    1.00
  YS02001619YS02001622 CONDUIT   1054.01     0  02:05      1.34    1.55    1.00
  YS02001622YS02001625 CONDUIT   1053.70     0  02:05      1.34    0.56    1.00
  YS02001625YS02001629 CONDUIT    917.24     0  01:51      1.17    0.44    1.00
  YS02001629YS02163301 CONDUIT    917.68     0  01:51      1.17    1.13    1.00
  YS02001633YS02163601 CONDUIT   1328.93     0  01:51      1.69    1.40    1.00
  YS02001641YS02001644 CONDUIT   1326.36     0  01:51      1.69    4.29    1.00
  YS02001644YS02001647 CONDUIT   1696.46     0  01:51      2.18    1.00    1.00
  YS02001647YS02001649 CONDUIT   1692.78     0  01:51      2.30    0.89    1.00
  YS02001649YS02001757 CONDUIT   1845.37     0  01:50      2.40    1.12    1.00
  YS02001652YS02001649 CONDUIT   1268.21     0  02:01      1.61    0.63    1.00
  YS02001655YS02001652 CONDUIT   1267.94     0  02:01      1.61    0.62    1.00
  YS02001658YS02001655 CONDUIT   1267.31     0  02:01      1.86    0.54    1.00
  YS02001661YS02001658 CONDUIT   1267.63     0  02:01      2.23    0.50    1.00
  YS02001664YS02001661 CONDUIT   1266.42     0  02:01      2.17    0.40    0.92
  YS02001745YS02001748 CONDUIT    800.05     0  02:01      2.08    0.31    0.99
  YS02001748YS02001751 CONDUIT    800.25     0  02:01      1.63    0.40    1.00
  YS02001751YS02001754 CONDUIT    801.38     0  02:01      1.44    0.39    1.00
  YS02001754YS02001757 CONDUIT    801.60     0  02:01      1.02    0.32    1.00
  YS02001757CaochengTiaoxuchi CONDUIT   3173.23     0  02:00      4.04    1.37    1.00
  YS02001759YS02001757 CONDUIT   1379.34     0  02:01      1.76    0.98    1.00
  YS02001762YS02001759 CONDUIT    711.49     0  01:56      0.91    0.82    1.00
  YS02001765YS02001762 CONDUIT    705.34     0  01:56      0.90    0.66    1.00
  YS02001767YS02001765 CONDUIT    703.07     0  01:56      0.90    0.88    1.00
  YS02001770YS02001767 CONDUIT    702.73     0  01:55      0.89    2.78    1.00
  YS02001774YS02001770 CONDUIT    851.94     0  02:04      1.08    0.54    1.00
  YS02001779YS02001774 CONDUIT    851.48     0  02:05      1.08    0.43    1.00
  YS02001783YS02001784 CONDUIT   1171.61     0  02:01      2.33    1.62    1.00
  YS02001784YS02001785 CONDUIT   1173.10     0  02:01      2.33    2.73    1.00
  YS02001786YS02001788 CONDUIT   1174.01     0  02:01      2.50    2.26    0.89
  YS02001788YS02001790 CONDUIT   1184.64     0  02:00      2.74    0.87    0.85
  YS02001790YS02001791 CONDUIT   1307.62     0  02:00      3.45    1.42    0.71
  YS02001791YS02001793 CONDUIT   1263.37     0  02:02      6.75    0.54    0.45
  YS02001793JiankangQianchi CONDUIT   1252.40     0  01:58      2.51    0.10    0.65
  YS02001882YS02001884 CONDUIT     33.10     0  01:50      0.16    0.04    1.00
  YS02001884YS02001887 CONDUIT     60.77     0  01:49      0.12    0.08    1.00
  YS02001887YS02001890 CONDUIT   1180.06     0  02:01      1.50    2.02    1.00
  YS02001890YS02001895 CONDUIT    517.98     0  02:07      0.66    0.24    1.00
  YS02001895YS02001898 CONDUIT    518.12     0  02:04      0.66    0.90    1.00
  YS02001898YS02001901 CONDUIT    519.12     0  02:07      0.66    0.33    1.00
  YS02001901YS02001904 CONDUIT    519.10     0  02:07      0.66    0.81    1.00
  YS02001904YS02001907 CONDUIT    526.91     0  02:07      0.67    0.18    1.00
  YS02001907YS02006553 CONDUIT    796.87     0  02:24      0.89    0.94    1.00
  YS02001910YS02001907 CONDUIT   1992.93     0  02:04      2.54    1.12    1.00
  YS02001915YS02001910 CONDUIT   1993.13     0  02:03      2.54    0.99    1.00
  YS02001918YS02001915 CONDUIT    685.79     0  02:03      0.87    0.38    1.00
  YS02001920YS02001918 CONDUIT    685.27     0  02:03      0.87    0.66    1.00
  YS02001923YS02001920 CONDUIT    682.12     0  02:03      0.87    0.31    1.00
  YS02001926YS02001923 CONDUIT    681.77     0  02:03      0.95    0.97    1.00
  YS02001929YS02001926 CONDUIT    681.54     0  02:03      1.09    0.32    1.00
  YS02006553YS02006556 CONDUIT    797.25     0  02:24      1.02    0.68    1.00
  YS02006556YS02006558 CONDUIT    797.37     0  02:24      1.02    0.63    1.00
  YS02006558YS02006561 CONDUIT   1177.39     0  02:07      4.16    2.60    1.00
  YS02006561YS02001783 CONDUIT   1171.21     0  02:01      2.33    0.61    1.00
  YS02163301YS02001633 CONDUIT    916.40     0  01:51      1.17    0.86    1.00
  YS02163601YS02164001 CONDUIT   1327.89     0  01:51      1.69    1.18    1.00
  YS02164001YS02001641 CONDUIT   1326.17     0  01:51      1.69    1.81    1.00
  CC-R1                PUMP       683.00     0  00:00              1.00
  CC-R2                PUMP       683.00     0  00:00              1.00
  CC-S1                PUMP       200.00     0  00:00              1.00
  CC-S2                PUMP       200.00     0  00:00              1.00
  JK-R1                PUMP      1000.00     0  00:00              1.00
  JK-R2                PUMP      1000.00     0  00:00              1.00
  JK-S                 PUMP       300.00     0  00:00              1.00
  
  
  ***************************
  Flow Classification Summary
  ***************************
  
  -------------------------------------------------------------------------------------
                      Adjusted    ---------- Fraction of Time in Flow Class ---------- 
                       /Actual         Up    Down  Sub   Sup   Up    Down  Norm  Inlet 
  Conduit               Length    Dry  Dry   Dry   Crit  Crit  Crit  Crit  Ltd   Ctrl  
  -------------------------------------------------------------------------------------
  1                       1.00   0.00  0.00  0.00  0.00  1.00  0.00  0.00  0.44  0.00
  WS02003060WS02003069    1.00   0.00  0.00  0.00  0.98  0.02  0.00  0.00  0.68  0.00
  WS02003066WSF200        1.00   0.13  0.00  0.00  0.00  0.87  0.00  0.00  0.74  0.00
  WS02003067WS02003066    1.00   0.10  0.02  0.00  0.88  0.00  0.00  0.00  0.00  0.00
  WS02003069WS02003072    1.00   0.00  0.00  0.00  0.99  0.01  0.00  0.00  0.71  0.00
  WS02003072WS02003073    1.00   0.00  0.00  0.00  0.00  0.00  0.00  1.00  0.00  0.00
  WS02004401WS02004402    1.00   0.02  0.00  0.00  0.98  0.00  0.00  0.00  0.00  0.00
  WS02004402WS02004403    1.00   0.02  0.00  0.00  0.97  0.00  0.00  0.00  0.00  0.00
  WS02004403WS02004404    1.00   0.00  0.03  0.00  0.97  0.00  0.00  0.00  0.00  0.00
  WS02004404WS02004405    1.00   0.00  0.00  0.00  1.00  0.00  0.00  0.00  0.01  0.00
  WS02004405WS02004406    1.00   0.00  0.00  0.00  1.00  0.00  0.00  0.00  0.00  0.00
  WS02004406WS02004407    1.00   0.00  0.05  0.00  0.95  0.00  0.00  0.00  0.00  0.00
  WS02004407WS02004409    1.00   0.05  0.00  0.00  0.94  0.01  0.00  0.00  0.94  0.00
  WS02004409WS02004410    1.00   0.05  0.00  0.00  0.95  0.00  0.00  0.00  0.03  0.00
  WS02004410WS02004411    1.00   0.05  0.00  0.00  0.95  0.00  0.00  0.00  0.01  0.00
  WS02004411WS02004412    1.00   0.05  0.00  0.00  0.95  0.00  0.00  0.00  0.00  0.00
  WS02004412WS02004413    1.00   0.05  0.00  0.00  0.94  0.00  0.00  0.00  0.01  0.00
  WS02004413WS02003067    1.00   0.06  0.04  0.00  0.00  0.00  0.90  0.00  0.00  0.00
  WS02006109WS02006110    1.00   0.00  0.01  0.00  0.98  0.00  0.01  0.00  0.00  0.00
  WS02006110WS02006113    1.00   0.01  0.01  0.00  0.98  0.00  0.00  0.00  0.00  0.00
  WS02006111WS02006112    1.00   0.02  0.00  0.00  0.98  0.00  0.00  0.00  0.98  0.00
  WS02006112WS02006115    1.00   0.02  0.00  0.00  0.97  0.00  0.00  0.00  0.00  0.00
  WS02006113WS02006111    1.00   0.02  0.00  0.00  0.00  0.98  0.00  0.00  0.13  0.00
  WS02006115WS02006116    1.00   0.02  0.00  0.00  0.97  0.00  0.00  0.01  0.00  0.00
  WS02006116WS02004401    1.00   0.02  0.00  0.00  0.98  0.00  0.00  0.00  0.00  0.00
  WS02006228WS02006109    1.00   0.00  0.00  0.00  1.00  0.00  0.00  0.00  0.00  0.00
  WS02006229WS02006228    1.00   0.00  0.00  0.00  0.99  0.00  0.00  0.01  0.00  0.00
  WS02006230WS02006229    1.00   0.00  0.00  0.00  0.99  0.00  0.00  0.01  0.01  0.00
  WS02006231WS02006230    1.00   0.00  0.00  0.00  0.29  0.00  0.71  0.00  0.00  0.00
  WS02006232WS02006231    1.00   0.00  0.00  0.00  0.98  0.00  0.01  0.00  0.00  0.00
  WS02006234WS02006232    1.00   0.00  0.00  0.00  1.00  0.00  0.00  0.00  0.16  0.00
  WS02006235WS02006234    1.00   0.00  0.00  0.00  0.78  0.00  0.22  0.00  0.00  0.00
  WS02006238WS02006235    1.00   0.00  0.00  0.00  1.00  0.00  0.00  0.00  0.00  0.00
  WS02006239WS02006238    1.00   0.00  0.00  0.00  1.00  0.00  0.00  0.00  0.32  0.00
  WS02006240WS02006239    1.00   0.00  0.00  0.00  0.61  0.00  0.00  0.39  0.03  0.00
  WS02006242WS02006240    1.00   0.00  0.00  0.00  0.99  0.00  0.01  0.00  0.00  0.00
  WS02006243WS02006242    1.00   0.00  0.00  0.00  0.99  0.00  0.00  0.01  0.51  0.00
  WS02006245WS02006243    1.00   0.00  0.00  0.00  0.66  0.00  0.00  0.33  0.01  0.00
  WS02006247WS02006245    1.00   0.00  0.00  0.00  0.99  0.00  0.00  0.01  0.00  0.00
  WS02006248WS02006247    1.00   0.00  0.00  0.00  0.99  0.00  0.00  0.01  0.21  0.00
  WS02006249WS02006248    1.00   0.00  0.00  0.00  0.49  0.00  0.51  0.00  0.00  0.00
  WS02006251WS02006249    1.00   0.00  0.00  0.00  1.00  0.00  0.00  0.00  0.52  0.00
  WS02006252WS02006251    1.00   0.00  0.55  0.00  0.14  0.00  0.31  0.00  0.00  0.00
  WS02006256WS02006235    1.00   0.00  0.00  0.00  0.99  0.01  0.00  0.00  0.00  0.00
  WSF200WS02003060        1.00   0.00  0.13  0.00  0.33  0.55  0.00  0.00  0.47  0.00
  YS02001580YS02001583    1.00   0.22  0.54  0.00  0.24  0.00  0.00  0.00  0.64  0.00
  YS02001583YS02001586    1.00   0.41  0.30  0.00  0.29  0.00  0.00  0.00  0.64  0.00
  YS02001586YS02001590    1.00   0.13  0.00  0.00  0.45  0.04  0.00  0.38  0.34  0.00
  YS02001590YS02001593    1.00   0.13  0.01  0.00  0.16  0.00  0.71  0.00  0.00  0.00
  YS02001593YS02001596    1.00   0.13  0.00  0.00  0.18  0.01  0.00  0.68  0.02  0.00
  YS02001596YS02001600    1.00   0.13  0.00  0.00  0.23  0.01  0.00  0.63  0.04  0.00
  YS02001600YS02001601    1.00   0.13  0.01  0.00  0.86  0.00  0.00  0.00  0.58  0.00
  YS02001601YS02001602    1.00   0.13  0.01  0.00  0.87  0.00  0.00  0.00  0.00  0.00
  YS02001602YS02001605    1.00   0.13  0.00  0.00  0.87  0.00  0.00  0.00  0.00  0.00
  YS02001605YS02001607    1.00   0.13  0.00  0.00  0.87  0.00  0.00  0.00  0.00  0.00
  YS02001607YS02001610    1.00   0.13  0.01  0.00  0.86  0.00  0.00  0.00  0.01  0.00
  YS02001610YS02001613    1.00   0.13  0.00  0.00  0.87  0.00  0.00  0.00  0.00  0.00
  YS02001613YS02001616    1.00   0.13  0.00  0.00  0.87  0.00  0.00  0.00  0.00  0.00
  YS02001616YS02001619    1.00   0.13  0.00  0.00  0.87  0.00  0.00  0.00  0.00  0.00
  YS02001619YS02001622    1.00   0.13  0.00  0.00  0.87  0.00  0.00  0.00  0.28  0.00
  YS02001622YS02001625    1.00   0.13  0.00  0.00  0.87  0.00  0.00  0.00  0.03  0.00
  YS02001625YS02001629    1.00   0.13  0.04  0.00  0.21  0.00  0.63  0.00  0.00  0.00
  YS02001629YS02163301    1.00   0.15  0.01  0.00  0.84  0.00  0.00  0.00  0.00  0.00
  YS02001633YS02163601    1.00   0.00  0.01  0.00  0.99  0.00  0.00  0.00  0.14  0.00
  YS02001641YS02001644    1.00   0.00  0.01  0.00  0.99  0.00  0.00  0.00  0.00  0.00
  YS02001644YS02001647    1.00   0.00  0.16  0.00  0.84  0.00  0.00  0.00  0.00  0.00
  YS02001647YS02001649    1.00   0.00  0.16  0.00  0.59  0.25  0.00  0.00  0.56  0.00
  YS02001649YS02001757    1.00   0.00  0.00  0.00  0.88  0.12  0.00  0.00  0.41  0.00
  YS02001652YS02001649    1.00   0.00  0.00  0.00  0.97  0.03  0.00  0.00  0.71  0.00
  YS02001655YS02001652    1.00   0.00  0.00  0.00  0.24  0.01  0.00  0.76  0.04  0.00
  YS02001658YS02001655    1.00   0.00  0.14  0.00  0.71  0.15  0.00  0.00  0.63  0.00
  YS02001661YS02001658    1.00   0.14  0.00  0.00  0.55  0.31  0.00  0.00  0.65  0.00
  YS02001664YS02001661    1.00   0.13  0.00  0.00  0.79  0.08  0.00  0.00  0.83  0.00
  YS02001745YS02001748    1.00   0.00  0.00  0.00  0.16  0.00  0.00  0.84  0.04  0.00
  YS02001748YS02001751    1.00   0.00  0.00  0.00  0.87  0.13  0.00  0.00  0.73  0.00
  YS02001751YS02001754    1.00   0.00  0.00  0.00  0.22  0.01  0.00  0.77  0.03  0.00
  YS02001754YS02001757    1.00   0.00  0.00  0.00  1.00  0.00  0.00  0.00  0.76  0.00
  YS02001757CaochengTiaoxuchi    1.00   0.00  0.00  0.00  1.00  0.00  0.00  0.00  0.51  0.00
  YS02001759YS02001757    1.00   0.00  0.00  0.00  0.99  0.01  0.00  0.00  0.50  0.00
  YS02001762YS02001759    1.00   0.00  0.00  0.00  1.00  0.00  0.00  0.00  0.05  0.00
  YS02001765YS02001762    1.00   0.00  0.00  0.00  1.00  0.00  0.00  0.00  0.63  0.00
  YS02001767YS02001765    1.00   0.00  0.00  0.00  1.00  0.00  0.00  0.00  0.01  0.00
  YS02001770YS02001767    1.00   0.00  0.00  0.00  1.00  0.00  0.00  0.00  0.00  0.00
  YS02001774YS02001770    1.00   0.00  0.13  0.00  0.71  0.00  0.16  0.00  0.02  0.00
  YS02001779YS02001774    1.00   0.00  0.00  0.00  1.00  0.00  0.00  0.00  0.72  0.00
  YS02001783YS02001784    1.00   0.00  0.17  0.00  0.83  0.00  0.00  0.00  0.55  0.00
  YS02001784YS02001785    1.00   0.00  0.00  0.00  1.00  0.00  0.00  0.00  0.16  0.00
  YS02001786YS02001788    1.00   0.00  0.00  0.00  0.80  0.20  0.00  0.00  0.00  0.00
  YS02001788YS02001790    1.00   0.00  0.00  0.00  0.21  0.79  0.00  0.00  0.78  0.00
  YS02001790YS02001791    1.00   0.00  0.00  0.00  0.01  0.99  0.00  0.00  0.16  0.00
  YS02001791YS02001793    1.00   0.00  0.00  0.00  0.00  1.00  0.00  0.00  0.01  0.00
  YS02001793JiankangQianchi    1.00   0.00  0.00  0.00  0.98  0.02  0.00  0.00  0.93  0.00
  YS02001882YS02001884    1.00   0.15  0.01  0.00  0.85  0.00  0.00  0.00  0.00  0.00
  YS02001884YS02001887    1.00   0.06  0.05  0.00  0.89  0.00  0.00  0.00  0.00  0.00
  YS02001887YS02001890    1.00   0.00  0.00  0.00  0.97  0.00  0.03  0.00  0.00  0.00
  YS02001890YS02001895    1.00   0.00  0.15  0.00  0.85  0.00  0.00  0.00  0.00  0.00
  YS02001895YS02001898    1.00   0.16  0.00  0.00  0.83  0.00  0.02  0.00  0.00  0.00
  YS02001898YS02001901    1.00   0.16  0.00  0.00  0.84  0.00  0.00  0.00  0.01  0.00
  YS02001901YS02001904    1.00   0.16  0.00  0.00  0.84  0.00  0.00  0.00  0.00  0.00
  YS02001904YS02001907    1.00   0.00  0.15  0.00  0.84  0.00  0.00  0.00  0.00  0.00
  YS02001907YS02006553    1.00   0.00  0.02  0.00  0.98  0.00  0.00  0.00  0.00  0.00
  YS02001910YS02001907    1.00   0.00  0.00  0.00  0.97  0.00  0.00  0.03  0.12  0.00
  YS02001915YS02001910    1.00   0.00  0.00  0.00  0.97  0.03  0.00  0.00  0.13  0.00
  YS02001918YS02001915    1.00   0.00  0.01  0.00  0.98  0.02  0.00  0.00  0.71  0.00
  YS02001920YS02001918    1.00   0.00  0.01  0.00  0.99  0.00  0.00  0.00  0.00  0.00
  YS02001923YS02001920    1.00   0.00  0.00  0.00  1.00  0.00  0.00  0.00  0.89  0.00
  YS02001926YS02001923    1.00   0.00  0.07  0.00  0.09  0.00  0.84  0.00  0.00  0.00
  YS02001929YS02001926    1.00   0.00  0.13  0.00  0.87  0.00  0.00  0.00  0.80  0.00
  YS02006553YS02006556    1.00   0.01  0.00  0.00  0.99  0.00  0.00  0.00  0.03  0.00
  YS02006556YS02006558    1.00   0.00  0.00  0.00  1.00  0.00  0.00  0.00  0.00  0.00
  YS02006558YS02006561    1.00   0.17  0.00  0.00  0.08  0.75  0.00  0.00  0.17  0.00
  YS02006561YS02001783    1.00   0.17  0.00  0.00  0.12  0.71  0.00  0.00  0.66  0.00
  YS02163301YS02001633    1.00   0.00  0.14  0.00  0.86  0.00  0.00  0.00  0.00  0.00
  YS02163601YS02164001    1.00   0.00  0.08  0.00  0.92  0.00  0.00  0.00  0.00  0.00
  YS02164001YS02001641    1.00   0.01  0.07  0.00  0.92  0.00  0.00  0.00  0.05  0.00
  
  
  *************************
  Conduit Surcharge Summary
  *************************
  
  ----------------------------------------------------------------------------
                                                           Hours        Hours 
                         --------- Hours Full --------   Above Full   Capacity
  Conduit                Both Ends  Upstream  Dnstream   Normal Flow   Limited
  ----------------------------------------------------------------------------
  WS02003072WS02003073        0.01      0.01      0.01      1.30         0.01
  WS02004403WS02004404        0.01      0.01      0.02      0.01         0.01
  WS02004404WS02004405        0.01      0.02      0.01      3.57         0.01
  WS02004405WS02004406        0.01      0.01      0.01      0.86         0.01
  WS02006109WS02006110        0.86      0.86      2.20      1.00         0.01
  WS02006110WS02006113        0.01      0.01      2.19      0.01         0.01
  WS02006111WS02006112        0.01      0.01      2.50      0.01         0.01
  WS02006112WS02006115        0.01      0.01      1.06      0.01         0.01
  WS02006228WS02006109        2.17      2.21      2.17      2.69         2.17
  WS02006229WS02006228        2.17      2.17      2.17      2.37         2.16
  WS02006230WS02006229        2.26      2.34      2.26      4.20         2.26
  WS02006231WS02006230        0.87      0.87      1.09      3.87         0.01
  WS02006232WS02006231        1.03      1.03      2.21      1.10         0.01
  WS02006234WS02006232        2.12      2.12      2.21      1.09         1.07
  WS02006235WS02006234        1.30      1.31      2.12      3.76         0.02
  WS02006238WS02006235        2.14      2.14      2.22      0.01         0.01
  WS02006239WS02006238        2.18      2.20      2.18      2.22         1.97
  WS02006240WS02006239        2.14      2.18      2.14      2.21         1.84
  WS02006242WS02006240        2.16      2.16      2.20      2.33         0.01
  WS02006243WS02006242        2.17      2.17      2.20      0.01         0.05
  WS02006245WS02006243        2.16      2.17      2.16      1.31         1.35
  WS02006247WS02006245        2.16      2.17      2.16      3.57         2.14
  WS02006248WS02006247        2.16      2.16      2.17      0.01         0.05
  WS02006249WS02006248        2.15      2.15      2.16      3.55         0.01
  WS02006251WS02006249        2.15      2.16      2.16      2.27         2.07
  WS02006252WS02006251        2.30      2.30      2.31      2.30         0.01
  WS02006256WS02006235        3.74      3.79      5.42      1.43         0.01
  YS02001580YS02001583        0.89      0.89      0.96      0.01         0.01
  YS02001583YS02001586        0.90      0.90      1.06      0.01         0.01
  YS02001586YS02001590        1.07      1.07      1.15      0.01         0.01
  YS02001590YS02001593        1.16      1.16      1.18      1.20         0.01
  YS02001593YS02001596        1.17      1.17      1.30      0.01         0.01
  YS02001596YS02001600        1.35      1.35      1.44      0.01         0.01
  YS02001600YS02001601        1.49      1.49      1.71      0.01         0.01
  YS02001601YS02001602        1.62      1.62      1.74      1.42         0.01
  YS02001602YS02001605        1.58      1.58      1.62      2.46         0.01
  YS02001605YS02001607        1.55      1.58      1.55      1.65         1.53
  YS02001607YS02001610        1.17      1.17      1.20      0.01         0.01
  YS02001610YS02001613        1.17      1.17      1.20      0.01         0.01
  YS02001613YS02001616        1.12      1.12      1.17      0.01         0.01
  YS02001616YS02001619        1.10      1.10      1.12      0.13         0.11
  YS02001619YS02001622        1.10      1.10      1.11      1.09         1.02
  YS02001622YS02001625        1.11      1.11      1.30      0.01         0.01
  YS02001625YS02001629        1.04      1.04      1.30      0.01         0.01
  YS02001629YS02163301        1.31      1.31      1.32      0.07         0.10
  YS02001633YS02163601        1.34      1.34      1.37      0.19         0.21
  YS02001641YS02001644        1.27      1.29      1.27      1.77         1.25
  YS02001644YS02001647        1.05      1.05      1.27      0.01         0.01
  YS02001647YS02001649        1.05      1.05      1.20      0.01         0.01
  YS02001649YS02001757        1.20      1.20      1.26      0.08         0.04
  YS02001652YS02001649        1.01      1.01      1.20      0.01         0.01
  YS02001655YS02001652        0.79      0.79      0.99      0.01         0.01
  YS02001658YS02001655        0.45      0.45      0.79      0.01         0.01
  YS02001661YS02001658        0.15      0.15      0.45      0.01         0.01
  YS02001664YS02001661        0.01      0.01      0.21      0.01         0.01
  YS02001745YS02001748        0.01      0.01      0.36      0.01         0.01
  YS02001748YS02001751        0.41      0.41      0.64      0.01         0.01
  YS02001751YS02001754        0.64      0.64      0.90      0.01         0.01
  YS02001754YS02001757        0.95      0.95      1.26      0.01         0.01
  YS02001757CaochengTiaoxuchi        1.26      1.26      2.21      0.46         0.45
  YS02001759YS02001757        1.19      1.19      1.26      0.01         0.02
  YS02001762YS02001759        1.16      1.16      1.19      0.01         0.02
  YS02001765YS02001762        1.11      1.11      1.16      0.01         0.01
  YS02001767YS02001765        1.07      1.07      1.11      0.01         0.02
  YS02001770YS02001767        1.06      1.06      1.07      0.74         0.61
  YS02001774YS02001770        1.04      1.04      1.14      0.01         0.01
  YS02001779YS02001774        0.89      0.89      1.14      0.01         0.01
  YS02001783YS02001784        0.72      0.75      0.72      0.94         0.72
  YS02001784YS02001785        0.60      0.72      0.60      1.23         0.60
  YS02001786YS02001788        0.01      0.60      0.01      1.07         0.01
  YS02001790YS02001791        0.01      0.01      0.01      0.71         0.01
  YS02001793JiankangQianchi        0.01      0.01      7.70      0.01         0.01
  YS02001882YS02001884        0.68      0.68      0.70      0.01         0.01
  YS02001884YS02001887        0.72      0.72      0.74      0.01         0.01
  YS02001887YS02001890        0.76      0.76      0.77      0.22         0.01
  YS02001890YS02001895        0.67      0.67      0.79      0.01         0.01
  YS02001895YS02001898        0.66      0.66      0.67      0.01         0.01
  YS02001898YS02001901        0.67      0.67      0.72      0.01         0.01
  YS02001901YS02001904        0.71      0.71      0.72      0.01         0.01
  YS02001904YS02001907        0.71      0.71      1.03      0.01         0.01
  YS02001907YS02006553        1.24      1.24      1.33      0.01         0.01
  YS02001910YS02001907        0.79      0.79      1.01      0.10         0.11
  YS02001915YS02001910        0.68      0.68      0.79      0.01         0.01
  YS02001918YS02001915        0.58      0.58      0.68      0.01         0.01
  YS02001920YS02001918        0.58      0.58      0.60      0.01         0.01
  YS02001923YS02001920        0.53      0.53      0.60      0.01         0.01
  YS02001926YS02001923        0.24      0.25      0.28      0.01         0.01
  YS02001929YS02001926        0.12      0.12      0.28      0.01         0.01
  YS02006553YS02006556        0.90      0.90      1.03      0.01         0.01
  YS02006556YS02006558        0.97      0.97      1.06      0.01         0.01
  YS02006558YS02006561        0.62      0.88      0.62      1.17         0.62
  YS02006561YS02001783        0.55      0.55      0.75      0.01         0.01
  YS02163301YS02001633        1.32      1.32      1.35      0.01         0.01
  YS02163601YS02164001        1.30      1.30      1.37      0.08         0.01
  YS02164001YS02001641        1.29      1.30      1.29      0.77         0.75
  
  
  ***************
  Pumping Summary
  ***************
  
  ---------------------------------------------------------------------------------------------------------
                                                  Min       Avg       Max     Total     Power    % Time Off
                        Percent   Number of      Flow      Flow      Flow    Volume     Usage    Pump Curve
  Pump                 Utilized   Start-Ups       LPS       LPS       LPS  10^6 ltr     Kw-hr    Low   High
  ---------------------------------------------------------------------------------------------------------
  CC-R1                   23.28           3      0.00    683.00    683.00     4.579     88.10    0.0    6.2
  CC-R2                   18.75           2      0.00    683.00    683.00     3.688     71.86    0.0    5.6
  CC-S1                   45.37           4      0.00    200.00    200.00     2.613     14.26    0.0    0.0
  CC-S2                   28.77           2      0.00    200.00    200.00     1.657      8.54    0.0    0.0
  JK-R1                   10.35          15      0.00   1000.00   1000.00     2.981     34.67    0.0    0.0
  JK-R2                    1.71           5      0.00   1000.00   1000.00     0.492      3.81    0.0    0.0
  JK-S                    17.87          19      0.00    300.00    300.00     1.544     22.03    0.0    0.0
  

  Analysis begun on:  Tue Apr 15 14:18:16 2025
  Analysis ended on:  Tue Apr 15 14:18:18 2025
  Total elapsed time: 00:00:02