
  EPA STORM WATER MANAGEMENT MODEL - VERSION 5.2 (Build 5.2.4)
  PYSWMM TOOLKIT API - VERSION v1.0 (2023-11-27)
  ------------------------------------------------------------

  WARNING 04: minimum elevation drop used for Conduit WS02004404WS02004405
  WARNING 03: negative offset ignored for Link YS02001904YS02001907
  
  ****************
  Analysis Options
  ****************
  Flow Units ............... LPS
  Process Models:
    Rainfall/Runoff ........ YES
    RDII ................... NO
    Snowmelt ............... NO
    Groundwater ............ NO
    Flow Routing ........... YES
    Ponding Allowed ........ NO
    Water Quality .......... NO
  Infiltration Method ...... HORTON
  Flow Routing Method ...... DYNWAVE
  Surcharge Method ......... EXTRAN
  Starting Date ............ 08/28/2015 08:00:00
  Ending Date .............. 08/28/2015 16:00:00
  Antecedent Dry Days ...... 8.0
  Report Time Step ......... 00:01:00
  Wet Time Step ............ 00:01:00
  Dry Time Step ............ 00:01:00
  Routing Time Step ........ 30.00 sec
  Variable Time Step ....... YES
  Maximum Trials ........... 8
  Number of Threads ........ 4
  Head Tolerance ........... 0.001500 m
  
  
  **************************        Volume         Depth
  Runoff Quantity Continuity     hectare-m            mm
  **************************     ---------       -------
  Total Precipitation ......         3.201        96.494
  Evaporation Loss .........         0.000         0.000
  Infiltration Loss ........         0.102         3.087
  Surface Runoff ...........         3.066        92.440
  Final Storage ............         0.033         0.995
  Continuity Error (%) .....        -0.029
  
  
  **************************        Volume        Volume
  Flow Routing Continuity        hectare-m      10^6 ltr
  **************************     ---------     ---------
  Dry Weather Inflow .......         0.025         0.251
  Wet Weather Inflow .......         3.066        30.664
  Groundwater Inflow .......         0.000         0.000
  RDII Inflow ..............         0.000         0.000
  External Inflow ..........         0.083         0.834
  External Outflow .........         1.787        17.873
  Flooding Loss ............         1.358        13.578
  Evaporation Loss .........         0.000         0.000
  Exfiltration Loss ........         0.000         0.000
  Initial Stored Volume ....         0.243         2.431
  Final Stored Volume ......         0.277         2.774
  Continuity Error (%) .....        -0.135
  
  
  *************************
  Highest Continuity Errors
  *************************
  Node YS02001583 (-9.94%)
  Node YS02001884 (4.88%)
  
  
  ***************************
  Time-Step Critical Elements
  ***************************
  Link WS02006252WS02006251 (44.24%)
  Link WS02004404WS02004405 (13.55%)
  Link WS02006238WS02006235 (9.81%)
  Link YS02001791YS02001793 (8.61%)
  Link WS02006235WS02006234 (6.44%)
  
  
  ********************************
  Highest Flow Instability Indexes
  ********************************
  Link WS02006113WS02006111 (45)
  Link WS02006111WS02006112 (27)
  Link WS02006252WS02006251 (17)
  Link WS02006238WS02006235 (17)
  Link YS02001602YS02001605 (16)
  
  
  *********************************
  Most Frequent Nonconverging Nodes
  *********************************
  Node CC-1 (14.95%)
  Node CC-2 (14.95%)
  Node JK-1 (14.95%)
  Node JK-2 (14.95%)
  Node WSC (14.95%)
  
  
  *************************
  Routing Time Step Summary
  *************************
  Minimum Time Step           :     0.00 sec
  Average Time Step           :     2.00 sec
  Maximum Time Step           :     7.04 sec
  % of Time in Steady State   :     0.00
  Average Iterations per Step :     3.27
  % of Steps Not Converging   :    14.95
  Time Step Frequencies       :
     30.000 - 13.228 sec      :     0.00 %
     13.228 -  5.833 sec      :     9.04 %
      5.833 -  2.572 sec      :    18.47 %
      2.572 -  1.134 sec      :    21.86 %
      1.134 -  0.500 sec      :    50.62 %
  
  
  ***************************
  Subcatchment Runoff Summary
  ***************************
  
  ------------------------------------------------------------------------------------------------------------------------------
                            Total      Total      Total      Total     Imperv       Perv      Total       Total     Peak  Runoff
                           Precip      Runon       Evap      Infil     Runoff     Runoff     Runoff      Runoff   Runoff   Coeff
  Subcatchment                 mm         mm         mm         mm         mm         mm         mm    10^6 ltr      LPS
  ------------------------------------------------------------------------------------------------------------------------------
  sub60                     96.49       0.00       0.00       1.87      83.73       9.72      93.44        1.23   824.01   0.968
  sub61                     96.49       0.00       0.00       2.71      78.97      13.71      92.68        1.70  1141.42   0.960
  sub62                     96.49       0.00       0.00       1.24      87.50       6.48      93.98        2.58  1607.60   0.974
  sub63                     96.49       0.00       0.00       4.97      67.55      23.02      90.58        2.06  1269.62   0.939
  sub64                     96.49       0.00       0.00       2.51      80.83      11.96      92.79        2.23  1299.70   0.962
  sub65                     96.49       0.00       0.00       2.18      82.71      10.37      93.08        2.56  1454.19   0.965
  sub66                     96.49       0.00       0.00       6.10      67.44      21.89      89.33        4.17  1888.85   0.926
  sub67                     96.49       0.00       0.00       1.20      87.55       6.53      94.07        1.75  1251.78   0.975
  sub68                     96.49       0.00       0.00       2.24      81.81      11.27      93.09        2.56  1648.36   0.965
  sub69                     96.49       0.00       0.00       2.00      81.92      12.48      94.40        3.49  1938.38   0.978
  sub70                     96.49       0.00       0.00       6.61      63.53      26.20      89.73        2.59  1060.01   0.930
  sub71                     96.49       0.00       0.00       1.28      87.46       6.45      93.91        2.46  1408.44   0.973
  sub72                     96.49       0.00       0.00       1.13      88.35       5.62      93.97        1.29   677.01   0.974
  
  
  ******************
  Node Depth Summary
  ******************
  
  ---------------------------------------------------------------------------------
                                 Average  Maximum  Maximum  Time of Max    Reported
                                   Depth    Depth      HGL   Occurrence   Max Depth
  Node                 Type       Meters   Meters   Meters  days hr:min      Meters
  ---------------------------------------------------------------------------------
  WS02003060           JUNCTION     0.24     0.38     5.32     0  02:59        0.38
  WS02003066           JUNCTION     0.20     0.30     5.85     0  02:58        0.30
  WS02003067           JUNCTION     0.51     0.70     6.02     0  02:58        0.70
  WS02003069           JUNCTION     0.27     0.43     5.01     0  02:59        0.43
  WS02003072           JUNCTION     0.33     0.50     4.87     0  03:00        0.50
  WS02003073           JUNCTION     0.19     0.30     4.36     0  03:01        0.30
  WS02004401           JUNCTION     0.60     0.85     6.85     0  02:53        0.85
  WS02004402           JUNCTION     0.63     0.88     6.84     0  02:54        0.88
  WS02004403           JUNCTION     0.65     0.89     6.82     0  02:56        0.89
  WS02004404           JUNCTION     0.73     0.96     6.81     0  02:54        0.96
  WS02004405           JUNCTION     0.72     0.96     6.81     0  02:54        0.96
  WS02004406           JUNCTION     0.74     0.96     6.79     0  02:56        0.96
  WS02004407           JUNCTION     0.18     0.30     6.61     0  02:54        0.30
  WS02004409           JUNCTION     0.40     0.67     6.44     0  02:57        0.67
  WS02004410           JUNCTION     0.43     0.68     6.40     0  02:57        0.68
  WS02004411           JUNCTION     0.45     0.69     6.37     0  02:57        0.69
  WS02004412           JUNCTION     0.47     0.70     6.34     0  02:57        0.70
  WS02004413           JUNCTION     0.63     0.86     6.33     0  02:58        0.86
  WS02006109           JUNCTION     0.66     1.24     7.85     0  02:26        1.24
  WS02006110           JUNCTION     0.66     1.25     7.83     0  02:16        1.08
  WS02006111           JUNCTION     0.18     0.29     6.99     0  03:11        0.29
  WS02006112           JUNCTION     0.75     1.07     6.95     0  02:17        1.06
  WS02006113           JUNCTION     0.27     0.46     7.35     0  03:11        0.46
  WS02006115           JUNCTION     0.48     0.75     6.89     0  02:53        0.75
  WS02006116           JUNCTION     0.57     0.83     6.87     0  02:53        0.83
  WS02006228           JUNCTION     0.65     1.26     7.91     0  02:11        1.19
  WS02006229           JUNCTION     0.62     1.31     8.01     0  02:11        1.08
  WS02006230           JUNCTION     0.62     1.54     8.29     0  02:11        1.19
  WS02006231           JUNCTION     0.42     1.56     8.68     0  01:50        0.98
  WS02006232           JUNCTION     0.56     1.32     8.36     0  01:45        1.14
  WS02006234           JUNCTION     0.49     1.52     8.68     0  02:00        1.14
  WS02006235           JUNCTION     0.53     1.55     8.72     0  02:25        1.22
  WS02006238           JUNCTION     0.56     1.61     8.75     0  02:25        1.25
  WS02006239           JUNCTION     0.53     1.56     8.77     0  02:25        1.22
  WS02006240           JUNCTION     0.50     1.50     8.79     0  03:10        1.20
  WS02006242           JUNCTION     0.57     1.54     8.81     0  03:10        1.30
  WS02006243           JUNCTION     0.48     1.38     8.80     0  03:10        1.22
  WS02006245           JUNCTION     0.48     1.28     8.76     0  03:10        1.19
  WS02006247           JUNCTION     0.51     1.24     8.74     0  03:10        1.19
  WS02006248           JUNCTION     0.47     1.10     8.69     0  01:40        1.10
  WS02006249           JUNCTION     0.50     1.09     8.69     0  01:40        1.09
  WS02006251           JUNCTION     0.50     1.35     9.02     0  01:40        1.23
  WS02006252           JUNCTION     0.36     1.50     9.74     0  00:00        0.86
  WS02006256           JUNCTION     1.02     2.35     9.28     0  00:00        2.35
  WSF200               JUNCTION     0.17     0.29     5.52     0  02:58        0.29
  YS02001580           JUNCTION     0.13     1.05     9.59     0  01:32        0.77
  YS02001583           JUNCTION     0.16     1.14     9.64     0  01:32        0.82
  YS02001586           JUNCTION     0.24     1.13     9.30     0  01:31        1.13
  YS02001590           JUNCTION     0.34     1.40     9.26     0  01:31        1.37
  YS02001593           JUNCTION     0.28     1.34     9.21     0  01:31        1.29
  YS02001596           JUNCTION     0.37     1.71     9.13     0  01:31        1.65
  YS02001600           JUNCTION     0.44     1.87     9.00     0  01:31        1.86
  YS02001601           JUNCTION     0.62     2.06     8.90     0  01:31        2.06
  YS02001602           JUNCTION     0.53     1.87     8.77     0  01:32        1.87
  YS02001605           JUNCTION     0.50     1.78     8.68     0  01:32        1.77
  YS02001607           JUNCTION     0.49     1.65     8.50     0  02:03        1.65
  YS02001610           JUNCTION     0.54     1.68     8.48     0  01:32        1.68
  YS02001613           JUNCTION     0.50     1.69     8.53     0  01:32        1.67
  YS02001616           JUNCTION     0.43     1.61     8.52     0  01:32        1.61
  YS02001619           JUNCTION     0.41     1.61     8.54     0  01:32        1.61
  YS02001622           JUNCTION     0.40     1.62     8.52     0  01:32        1.58
  YS02001625           JUNCTION     0.66     1.78     8.38     0  01:32        1.78
  YS02001629           JUNCTION     0.52     1.85     8.40     0  01:32        1.85
  YS02001633           JUNCTION     0.60     2.08     8.53     0  01:34        2.03
  YS02001641           JUNCTION     0.59     1.96     8.40     0  01:44        1.95
  YS02001644           JUNCTION     0.58     1.92     8.35     0  01:34        1.92
  YS02001647           JUNCTION     0.38     1.83     8.44     0  01:34        1.79
  YS02001649           JUNCTION     0.43     2.05     8.44     0  01:34        2.05
  YS02001652           JUNCTION     0.32     2.16     8.76     0  01:34        2.15
  YS02001655           JUNCTION     0.26     2.20     9.05     0  01:34        2.20
  YS02001658           JUNCTION     0.19     2.30     9.44     0  01:35        2.17
  YS02001661           JUNCTION     0.19     2.46     9.86     0  01:35        2.12
  YS02001664           JUNCTION     0.07     1.89     9.81     0  01:35        1.74
  YS02001745           JUNCTION     0.10     2.35     9.87     0  01:35        0.98
  YS02001748           JUNCTION     0.18     2.27     9.35     0  01:35        1.38
  YS02001751           JUNCTION     0.23     2.20     9.08     0  01:35        1.54
  YS02001754           JUNCTION     0.30     2.20     8.81     0  01:35        1.77
  YS02001757           JUNCTION     0.47     2.21     8.47     0  01:35        2.07
  YS02001759           JUNCTION     0.40     2.21     8.57     0  01:35        2.08
  YS02001762           JUNCTION     0.39     2.15     8.55     0  01:35        2.06
  YS02001765           JUNCTION     0.37     2.10     8.55     0  01:34        2.00
  YS02001767           JUNCTION     0.36     2.03     8.52     0  01:34        1.97
  YS02001770           JUNCTION     0.37     1.95     8.44     0  01:34        1.95
  YS02001774           JUNCTION     0.44     2.05     8.47     0  01:34        2.00
  YS02001779           JUNCTION     0.28     1.68     8.37     0  01:34        1.68
  YS02001783           JUNCTION     0.26     1.72     7.86     0  01:34        1.25
  YS02001784           JUNCTION     0.27     1.42     7.48     0  01:34        1.14
  YS02001786           JUNCTION     0.23     1.19     7.22     0  01:33        0.88
  YS02001788           JUNCTION     0.16     0.63     6.61     0  01:36        0.63
  YS02001790           JUNCTION     0.19     0.73     6.38     0  01:37        0.72
  YS02001791           JUNCTION     0.12     0.44     5.91     0  01:40        0.43
  YS02001793           JUNCTION     0.07     0.30     5.13     0  01:40        0.30
  YS02001882           JUNCTION     0.34     1.83     8.55     0  01:33        1.69
  YS02001884           JUNCTION     0.43     1.93     8.55     0  01:33        1.79
  YS02001887           JUNCTION     0.51     1.92     8.46     0  01:33        1.87
  YS02001890           JUNCTION     0.54     1.81     8.32     0  01:33        1.81
  YS02001895           JUNCTION     0.31     1.75     8.50     0  01:33        1.56
  YS02001898           JUNCTION     0.32     1.77     8.51     0  01:33        1.56
  YS02001901           JUNCTION     0.43     1.79     8.40     0  01:33        1.68
  YS02001904           JUNCTION     0.41     1.68     8.31     0  01:33        1.64
  YS02001907           JUNCTION     0.74     1.96     8.25     0  01:33        1.96
  YS02001910           JUNCTION     0.54     2.03     8.53     0  01:33        2.01
  YS02001915           JUNCTION     0.35     2.00     8.72     0  01:33        2.00
  YS02001918           JUNCTION     0.21     1.81     8.88     0  01:33        1.81
  YS02001920           JUNCTION     0.28     2.14     9.15     0  01:34        1.93
  YS02001923           JUNCTION     0.16     2.03     9.29     0  01:34        1.73
  YS02001926           JUNCTION     0.19     1.90     9.35     0  01:34        1.57
  YS02001929           JUNCTION     0.11     1.78     9.47     0  01:34        1.35
  YS02006553           JUNCTION     0.74     2.10     8.39     0  01:34        1.98
  YS02006556           JUNCTION     0.71     2.23     8.55     0  01:34        1.99
  YS02006558           JUNCTION     0.76     2.32     8.59     0  01:34        2.03
  YS02006561           JUNCTION     0.17     1.56     8.22     0  01:34        0.93
  YS02163301           JUNCTION     0.55     1.96     8.48     0  01:34        1.92
  YS02163601           JUNCTION     0.64     2.08     8.48     0  01:34        2.03
  YS02164001           JUNCTION     0.58     1.99     8.45     0  01:34        1.94
  CC-1                 OUTFALL      0.00     0.00     0.00     0  00:00        0.00
  CC-2                 OUTFALL      0.00     0.00     0.00     0  00:00        0.00
  JK-1                 OUTFALL      0.00     0.00     0.00     0  00:00        0.00
  JK-2                 OUTFALL      0.00     0.00     0.00     0  00:00        0.00
  WSC                  OUTFALL      0.19     0.30     0.97     0  03:01        0.30
  CC-storage           STORAGE      1.05     1.88     7.38     0  02:22        1.88
  JK-storage           STORAGE      3.11     4.24     5.04     0  01:55        4.18
  
  
  *******************
  Node Inflow Summary
  *******************
  
  -------------------------------------------------------------------------------------------------
                                  Maximum  Maximum                  Lateral       Total        Flow
                                  Lateral    Total  Time of Max      Inflow      Inflow     Balance
                                   Inflow   Inflow   Occurrence      Volume      Volume       Error
  Node                 Type           LPS      LPS  days hr:min    10^6 ltr    10^6 ltr     Percent
  -------------------------------------------------------------------------------------------------
  WS02003060           JUNCTION     16.53   553.46     0  02:58       0.476        5.89       0.032
  WS02003066           JUNCTION      0.00   536.67     0  02:58           0        5.42       0.023
  WS02003067           JUNCTION      0.00   536.60     0  02:58           0        5.42       0.074
  WS02003069           JUNCTION      0.32   553.57     0  02:59     0.00922         5.9       0.059
  WS02003072           JUNCTION      0.00   553.25     0  03:00           0        5.89       0.108
  WS02003073           JUNCTION      1.82   554.95     0  03:00      0.0524        5.94       0.082
  WS02004401           JUNCTION      0.00   539.73     0  02:53           0        5.52       0.178
  WS02004402           JUNCTION      0.00   538.38     0  02:54           0        5.51       0.182
  WS02004403           JUNCTION      0.00   538.42     0  02:54           0         5.5       0.178
  WS02004404           JUNCTION      0.16   538.32     0  02:54     0.00467        5.49       0.154
  WS02004405           JUNCTION      0.04   538.00     0  02:54      0.0011        5.48       0.219
  WS02004406           JUNCTION      0.00   538.06     0  02:56           0        5.47       0.370
  WS02004407           JUNCTION      0.00   537.71     0  02:54           0        5.45       0.017
  WS02004409           JUNCTION      0.00   537.49     0  02:54           0        5.45       0.041
  WS02004410           JUNCTION      0.00   537.20     0  02:55           0        5.45       0.072
  WS02004411           JUNCTION      0.00   536.95     0  02:55           0        5.44       0.094
  WS02004412           JUNCTION      0.00   536.94     0  02:57           0        5.44       0.128
  WS02004413           JUNCTION      0.00   536.82     0  02:56           0        5.43       0.230
  WS02006109           JUNCTION      1.23   561.07     0  02:11      0.0354        5.56       0.164
  WS02006110           JUNCTION      0.00   561.99     0  02:11           0        5.55       0.116
  WS02006111           JUNCTION      0.00   565.04     0  03:11           0        5.54       0.009
  WS02006112           JUNCTION      0.00   544.77     0  03:12           0        5.54       0.315
  WS02006113           JUNCTION      0.00   568.71     0  02:26           0        5.54       0.032
  WS02006115           JUNCTION      0.00   549.06     0  02:30           0        5.52       0.111
  WS02006116           JUNCTION      0.00   540.75     0  02:53           0        5.52       0.035
  WS02006228           JUNCTION      0.00   558.84     0  02:11           0        5.53       0.072
  WS02006229           JUNCTION      0.00   558.45     0  02:11           0        5.53       0.103
  WS02006230           JUNCTION     10.28   590.76     0  02:00       0.296        5.54       0.082
  WS02006231           JUNCTION      0.00   600.09     0  01:40           0        5.24       0.056
  WS02006232           JUNCTION      0.00   598.47     0  01:40           0        5.26       0.318
  WS02006234           JUNCTION      0.00   599.95     0  01:40           0        5.26      -0.115
  WS02006235           JUNCTION      0.00   595.82     0  01:40           0        5.32       0.210
  WS02006238           JUNCTION      0.00   428.79     0  03:35           0        4.22      -0.034
  WS02006239           JUNCTION      0.00   429.43     0  03:35           0        4.19      -0.019
  WS02006240           JUNCTION      0.00   426.83     0  03:35           0        4.17       0.047
  WS02006242           JUNCTION      0.00   426.08     0  03:35           0        4.15       0.084
  WS02006243           JUNCTION      0.00   425.26     0  03:35           0        4.15       0.128
  WS02006245           JUNCTION      0.00   425.79     0  03:35           0        4.16       0.314
  WS02006247           JUNCTION      0.00   427.27     0  03:35           0        4.16       0.055
  WS02006248           JUNCTION      0.00   427.09     0  03:35           0        4.16       0.076
  WS02006249           JUNCTION      0.00   459.02     0  00:00           0        4.46       0.263
  WS02006251           JUNCTION      0.08   405.55     0  03:22     0.00222        4.46      -0.022
  WS02006252           JUNCTION      0.00   400.00     0  00:00           0        4.46      -0.017
  WS02006256           JUNCTION      0.00   379.37     0  01:35           0        1.67      -0.661
  WSF200               JUNCTION      0.00   536.72     0  02:58           0        5.41       0.005
  YS02001580           JUNCTION      0.00   158.08     0  01:32           0     0.00498       2.642
  YS02001583           JUNCTION      0.00   260.33     0  01:32           0      0.0155      -9.041
  YS02001586           JUNCTION   1060.01  1060.01     0  01:42        2.59         2.6       0.064
  YS02001590           JUNCTION      0.00   318.54     0  02:03           0        1.68      -0.015
  YS02001593           JUNCTION      0.00   318.45     0  02:03           0        1.68       0.005
  YS02001596           JUNCTION      0.00   318.06     0  01:54           0        1.68      -0.008
  YS02001600           JUNCTION      0.00   318.17     0  02:03           0        1.68       0.003
  YS02001601           JUNCTION   1938.38  2255.72     0  01:40        3.49        5.18       0.003
  YS02001602           JUNCTION      0.00   572.64     0  01:32           0        2.68       0.013
  YS02001605           JUNCTION      0.00   572.71     0  01:32           0        2.48       0.016
  YS02001607           JUNCTION      0.00   572.58     0  01:32           0        2.48       0.078
  YS02001610           JUNCTION      0.00   952.66     0  01:46           0        3.13       0.064
  YS02001613           JUNCTION      0.00   616.50     0  01:46           0        2.37       0.064
  YS02001616           JUNCTION      0.00   616.85     0  01:44           0        2.37       0.019
  YS02001619           JUNCTION   1888.85  1888.85     0  01:41        4.17        5.89      -0.000
  YS02001622           JUNCTION      0.00  1053.92     0  01:40           0        5.15      -0.008
  YS02001625           JUNCTION      0.00  1504.17     0  01:46           0        5.57       0.161
  YS02001629           JUNCTION      0.00   958.71     0  01:32           0        3.95       0.000
  YS02001633           JUNCTION   1454.39  1454.39     0  01:40        2.57        5.89       0.051
  YS02001641           JUNCTION      0.00  1428.21     0  01:33           0        5.27       0.048
  YS02001644           JUNCTION   1299.73  2182.68     0  01:39        2.23        7.53       0.034
  YS02001647           JUNCTION      0.00  1917.62     0  01:33           0        6.14       0.005
  YS02001649           JUNCTION      0.00  2184.50     0  01:34           0        8.17      -0.003
  YS02001652           JUNCTION      0.00  1279.40     0  01:38           0        2.06      -0.088
  YS02001655           JUNCTION      0.15  1279.91     0  01:38     0.00443        2.07      -0.085
  YS02001658           JUNCTION      0.00  1280.46     0  01:38           0        2.07      -0.076
  YS02001661           JUNCTION      0.00  1279.65     0  01:38           0        2.07       0.026
  YS02001664           JUNCTION   1269.62  1269.62     0  01:39        2.06        2.06      -0.034
  YS02001745           JUNCTION    824.02   824.02     0  01:38        1.23        1.23       0.167
  YS02001748           JUNCTION      0.04   842.86     0  01:38      0.0013        1.24      -0.321
  YS02001751           JUNCTION      0.01   843.51     0  01:38    0.000317        1.24       0.032
  YS02001754           JUNCTION      0.26   844.23     0  01:38     0.00749        1.26      -0.158
  YS02001757           JUNCTION      0.00  3552.13     0  01:36           0          13       0.021
  YS02001759           JUNCTION   1141.46  1586.96     0  01:35         1.7        3.57      -0.017
  YS02001762           JUNCTION      0.00   842.21     0  01:35           0        1.87      -0.008
  YS02001765           JUNCTION      0.00   842.11     0  01:35           0        1.87      -0.007
  YS02001767           JUNCTION      0.54   843.07     0  01:35      0.0154        1.87      -0.014
  YS02001770           JUNCTION   1607.76  1607.76     0  01:39        2.58        2.63      -0.028
  YS02001774           JUNCTION      0.00   851.87     0  01:42           0       0.673       0.117
  YS02001779           JUNCTION      0.01   851.55     0  01:42    0.000144       0.625      -0.179
  YS02001783           JUNCTION      0.00  1175.22     0  01:36           0        5.07       0.003
  YS02001784           JUNCTION      1.06  1177.68     0  01:36      0.0305         5.1       0.009
  YS02001786           JUNCTION      0.06  1178.21     0  01:36     0.00162         5.1       0.014
  YS02001788           JUNCTION      0.07  1179.97     0  01:36     0.00204         5.1       0.006
  YS02001790           JUNCTION      0.15  1187.64     0  01:37     0.00446        5.11       0.026
  YS02001791           JUNCTION      0.00  1306.13     0  01:37           0         5.1      -0.032
  YS02001793           JUNCTION      0.00  1271.76     0  01:37           0        5.11       0.002
  YS02001882           JUNCTION      0.00   109.07     0  01:33           0      0.0134       4.191
  YS02001884           JUNCTION      0.00   145.17     0  01:32           0      0.0498       5.130
  YS02001887           JUNCTION   1252.23  1253.07     0  01:38        1.76         1.8       0.237
  YS02001890           JUNCTION      0.00  1253.74     0  01:38           0        1.76       0.270
  YS02001895           JUNCTION      0.00   561.43     0  01:33           0        1.41       0.125
  YS02001898           JUNCTION      0.00   560.17     0  01:33           0        1.41      -0.021
  YS02001901           JUNCTION      0.00   557.87     0  01:33           0        1.41       0.234
  YS02001904           JUNCTION      0.00   556.94     0  01:33           0        1.42       0.180
  YS02001907           JUNCTION      0.00  2987.67     0  01:39           0        5.39       0.312
  YS02001910           JUNCTION      0.00  1993.17     0  01:40           0        3.81       0.183
  YS02001915           JUNCTION   1408.46  2088.59     0  01:40        2.46        3.88       0.034
  YS02001918           JUNCTION      0.00   681.49     0  01:40           0        1.46       0.006
  YS02001920           JUNCTION      2.87   681.46     0  01:34      0.0827        1.44       0.062
  YS02001923           JUNCTION      0.04   909.81     0  01:34     0.00109        1.34      -0.061
  YS02001926           JUNCTION      0.05  1137.66     0  01:34      0.0015        1.32      -0.071
  YS02001929           JUNCTION    677.01   904.93     0  01:34        1.29         1.3      -0.028
  YS02006553           JUNCTION      0.00   794.32     0  02:08           0        2.85       0.412
  YS02006556           JUNCTION      0.00   794.56     0  02:08           0        2.87       0.271
  YS02006558           JUNCTION   1649.24  1649.24     0  01:39        2.59        5.26       0.064
  YS02006561           JUNCTION      0.00  1186.54     0  01:34           0        5.07       0.001
  YS02163301           JUNCTION      0.00   907.82     0  01:33           0        3.93       0.031
  YS02163601           JUNCTION      0.11  1428.62     0  01:33     0.00317        5.27       0.085
  YS02164001           JUNCTION      0.00  1428.61     0  01:33           0        5.27       0.033
  CC-1                 OUTFALL       0.00   683.00     0  00:00           0        4.56       0.000
  CC-2                 OUTFALL       0.00   683.00     0  00:00           0        3.97       0.000
  JK-1                 OUTFALL       0.00  1000.00     0  00:00           0        2.77       0.000
  JK-2                 OUTFALL       0.00  1000.00     0  00:00           0       0.635       0.000
  WSC                  OUTFALL       0.00   554.91     0  03:01           0        5.93       0.000
  CC-storage           STORAGE       0.00  3550.69     0  01:36           0        15.2      -0.077
  JK-storage           STORAGE       0.00  1244.05     0  01:37           0        5.26       0.092
  
  
  **********************
  Node Surcharge Summary
  **********************
  
  Surcharging occurs when water rises above the top of the highest conduit.
  ---------------------------------------------------------------------
                                               Max. Height   Min. Depth
                                   Hours       Above Crown    Below Rim
  Node                 Type      Surcharged         Meters       Meters
  ---------------------------------------------------------------------
  WS02006109           JUNCTION        2.36          0.416        1.404
  WS02006110           JUNCTION        1.00          0.340        1.510
  WS02006112           JUNCTION        1.09          0.068        1.612
  WS02006228           JUNCTION        2.36          0.427        1.773
  WS02006229           JUNCTION        2.38          0.514        1.936
  WS02006230           JUNCTION        1.00          0.462        1.108
  WS02006231           JUNCTION        1.19          0.849        0.681
  WS02006232           JUNCTION        2.44          0.623        0.857
  WS02006234           JUNCTION        1.54          0.800        0.440
  WS02006235           JUNCTION        2.32          0.843        0.447
  WS02006238           JUNCTION        2.39          0.886        0.544
  WS02006239           JUNCTION        2.33          0.817        0.473
  WS02006240           JUNCTION        2.36          0.790        0.600
  WS02006242           JUNCTION        2.37          0.809        0.011
  WS02006243           JUNCTION        2.36          0.667        0.103
  WS02006245           JUNCTION        2.35          0.569        0.281
  WS02006247           JUNCTION        2.35          0.529        0.231
  WS02006248           JUNCTION        2.34          0.380        0.000
  WS02006249           JUNCTION        2.34          0.390        0.000
  WS02006251           JUNCTION        1.29          0.316        0.864
  WS02006252           JUNCTION        2.49          1.100        0.000
  WS02006256           JUNCTION        5.17          2.050        0.000
  YS02001580           JUNCTION        0.92          0.450        0.000
  YS02001583           JUNCTION        0.93          0.500        0.000
  YS02001586           JUNCTION        1.13          0.510        0.000
  YS02001590           JUNCTION        1.22          0.750        0.000
  YS02001593           JUNCTION        1.22          0.723        0.117
  YS02001596           JUNCTION        1.35          0.977        0.093
  YS02001600           JUNCTION        1.54          1.190        0.000
  YS02001601           JUNCTION        1.76          1.440        0.000
  YS02001602           JUNCTION        1.70          1.270        0.000
  YS02001605           JUNCTION        1.67          1.180        0.000
  YS02001607           JUNCTION        1.24          0.650        0.030
  YS02001610           JUNCTION        1.28          0.680        0.000
  YS02001613           JUNCTION        1.24          0.689        0.011
  YS02001616           JUNCTION        1.19          0.610        0.000
  YS02001619           JUNCTION        1.17          0.610        0.000
  YS02001622           JUNCTION        1.18          0.620        0.000
  YS02001625           JUNCTION        1.39          0.780        0.000
  YS02001629           JUNCTION        1.11          0.470        0.000
  YS02001633           JUNCTION        1.43          1.060        0.000
  YS02001641           JUNCTION        1.40          0.961        0.139
  YS02001644           JUNCTION        1.38          0.920        0.000
  YS02001647           JUNCTION        1.15          0.829        0.071
  YS02001649           JUNCTION        1.32          1.050        0.000
  YS02001652           JUNCTION        1.08          1.130        0.000
  YS02001655           JUNCTION        0.84          1.200        0.000
  YS02001658           JUNCTION        0.44          1.300        0.000
  YS02001661           JUNCTION        0.17          1.390        0.000
  YS02001664           JUNCTION        0.01          0.886        0.424
  YS02001745           JUNCTION        0.01          1.350        0.000
  YS02001748           JUNCTION        0.34          1.190        0.000
  YS02001751           JUNCTION        0.66          1.200        0.000
  YS02001754           JUNCTION        1.00          1.150        0.000
  YS02001757           JUNCTION        1.42          1.210        0.000
  YS02001759           JUNCTION        1.31          1.210        0.000
  YS02001762           JUNCTION        1.27          1.150        0.000
  YS02001765           JUNCTION        1.23          1.100        0.000
  YS02001767           JUNCTION        1.18          1.030        0.000
  YS02001770           JUNCTION        1.14          0.920        0.000
  YS02001774           JUNCTION        1.25          1.050        0.000
  YS02001779           JUNCTION        0.96          0.680        0.000
  YS02001783           JUNCTION        0.77          0.921        0.679
  YS02001784           JUNCTION        0.74          0.616        0.874
  YS02001786           JUNCTION        0.62          0.394        1.036
  YS02001882           JUNCTION        0.70          0.830        0.000
  YS02001884           JUNCTION        0.71          0.870        0.000
  YS02001887           JUNCTION        0.75          0.868        0.082
  YS02001890           JUNCTION        0.77          0.760        0.000
  YS02001895           JUNCTION        0.69          0.750        0.000
  YS02001898           JUNCTION        0.68          0.740        0.000
  YS02001901           JUNCTION        0.74          0.794        0.076
  YS02001904           JUNCTION        0.73          0.683        0.167
  YS02001907           JUNCTION        1.00          0.950        0.000
  YS02001910           JUNCTION        0.80          1.027        0.073
  YS02001915           JUNCTION        0.70          1.000        0.000
  YS02001918           JUNCTION        0.60          0.810        0.000
  YS02001920           JUNCTION        0.62          1.140        0.000
  YS02001923           JUNCTION        0.26          0.820        0.000
  YS02001926           JUNCTION        0.28          0.900        0.000
  YS02001929           JUNCTION        0.14          0.780        0.000
  YS02006553           JUNCTION        1.03          1.103        0.087
  YS02006556           JUNCTION        0.89          1.194        0.156
  YS02006558           JUNCTION        0.89          1.220        0.180
  YS02006561           JUNCTION        0.56          0.764        0.386
  YS02163301           JUNCTION        1.41          0.963        0.067
  YS02163601           JUNCTION        1.48          1.080        0.000
  YS02164001           JUNCTION        1.39          0.991        0.109
  
  
  *********************
  Node Flooding Summary
  *********************
  
  Flooding refers to all water that overflows a node, whether it ponds or not.
  --------------------------------------------------------------------------
                                                             Total   Maximum
                                 Maximum   Time of Max       Flood    Ponded
                        Hours       Rate    Occurrence      Volume     Depth
  Node                 Flooded       LPS   days hr:min    10^6 ltr    Meters
  --------------------------------------------------------------------------
  WS02006248              0.02     28.54      0  03:10       0.001     0.000
  WS02006249              1.24     81.54      0  03:10       0.293     0.000
  WS02006252              0.01    245.63      0  00:00       0.000     0.000
  WS02006256              1.54    369.38      0  01:35       0.542     0.000
  YS02001580              0.01    106.31      0  01:32       0.001     0.000
  YS02001583              0.01    226.78      0  01:32       0.000     0.000
  YS02001586              0.76    742.36      0  01:42       0.909     0.000
  YS02001590              0.01     12.48      0  01:31       0.000     0.000
  YS02001600              0.01      3.95      0  01:31       0.000     0.000
  YS02001601              1.04   1857.86      0  01:40       2.501     0.000
  YS02001602              0.96     61.99      0  01:57       0.196     0.000
  YS02001605              0.01      2.80      0  01:32       0.000     0.000
  YS02001610              0.85    952.25      0  01:46       1.407     0.000
  YS02001616              0.09     69.64      0  01:32       0.000     0.000
  YS02001619              0.17    229.65      0  01:41       0.079     0.000
  YS02001622              0.01    317.74      0  01:32       0.001     0.000
  YS02001625              0.83   1503.99      0  01:46       2.224     0.000
  YS02001629              0.23    526.47      0  01:38       0.221     0.000
  YS02001633              0.01      2.48      0  01:34       0.000     0.000
  YS02001644              0.36   2182.38      0  01:39       1.411     0.000
  YS02001649              0.01    290.09      0  01:36       0.007     0.000
  YS02001652              0.01     53.86      0  01:35       0.000     0.000
  YS02001655              0.01    460.18      0  01:34       0.001     0.000
  YS02001658              0.01    515.65      0  01:35       0.001     0.000
  YS02001661              0.01    343.51      0  01:35       0.000     0.000
  YS02001745              0.01    349.58      0  01:35       0.000     0.000
  YS02001748              0.01    508.94      0  01:35       0.002     0.000
  YS02001751              0.01    310.06      0  01:35       0.001     0.000
  YS02001754              0.01     82.33      0  01:35       0.000     0.000
  YS02001757              0.01     57.06      0  01:35       0.000     0.000
  YS02001759              0.01      1.27      0  01:35       0.000     0.000
  YS02001762              0.01      7.88      0  01:35       0.000     0.000
  YS02001765              0.01     52.16      0  01:34       0.000     0.000
  YS02001767              0.01    167.49      0  01:34       0.000     0.000
  YS02001770              0.13    448.00      0  01:38       0.125     0.000
  YS02001774              0.01    217.31      0  01:34       0.000     0.000
  YS02001779              0.32    851.24      0  01:42       0.604     0.000
  YS02001882              0.01     43.50      0  01:33       0.000     0.000
  YS02001884              0.01     25.20      0  01:33       0.000     0.000
  YS02001890              0.27    736.47      0  01:38       0.338     0.000
  YS02001895              0.01     80.60      0  01:33       0.000     0.000
  YS02001898              0.01    227.73      0  01:33       0.000     0.000
  YS02001907              0.54   2987.38      0  01:39       2.683     0.000
  YS02001915              0.07    218.79      0  01:33       0.014     0.000
  YS02001918              0.01    251.56      0  01:34       0.004     0.000
  YS02001920              0.01     40.97      0  01:34       0.000     0.000
  YS02001923              0.01    368.31      0  01:34       0.002     0.000
  YS02001926              0.01    898.68      0  01:34       0.004     0.000
  YS02001929              0.01    734.35      0  01:34       0.002     0.000
  YS02163601              0.01      3.41      0  01:34       0.000     0.000
  
  
  **********************
  Storage Volume Summary
  **********************
  
  ------------------------------------------------------------------------------------------------
                         Average    Avg   Evap  Exfil     Maximum    Max    Time of Max    Maximum
                          Volume   Pcnt   Pcnt   Pcnt      Volume   Pcnt     Occurrence    Outflow
  Storage Unit           1000 m³   Full   Loss   Loss     1000 m³   Full    days hr:min        LPS
  ------------------------------------------------------------------------------------------------
  CC-storage               2.927   45.7    0.0    0.0       5.242   81.8       0  02:22    1783.53
  JK-storage               0.156   53.5    0.0    0.0       0.213   73.1       0  01:55    2300.00
  
  
  ***********************
  Outfall Loading Summary
  ***********************
  
  -----------------------------------------------------------
                         Flow       Avg       Max       Total
                         Freq      Flow      Flow      Volume
  Outfall Node           Pcnt       LPS       LPS    10^6 ltr
  -----------------------------------------------------------
  CC-1                  24.87    683.00    683.00       4.559
  CC-2                  22.00    683.00    683.00       3.972
  JK-1                  11.63   1000.00   1000.00       2.773
  JK-2                   2.53   1000.00   1000.00       0.635
  WSC                   99.96    272.77    554.91       5.935
  -----------------------------------------------------------
  System                32.20   3638.77   3910.63      17.873
  
  
  ********************
  Link Flow Summary
  ********************
  
  -----------------------------------------------------------------------------
                                 Maximum  Time of Max   Maximum    Max/    Max/
                                  |Flow|   Occurrence   |Veloc|    Full    Full
  Link                 Type          LPS  days hr:min     m/sec    Flow   Depth
  -----------------------------------------------------------------------------
  1                    CONDUIT    554.91     0  03:01      2.83    0.19    0.30
  WS02003060WS02003069 CONDUIT    553.25     0  02:59      1.64    0.22    0.34
  WS02003066WSF200     CONDUIT    536.72     0  02:58      2.85    0.09    0.22
  WS02003067WS02003066 CONDUIT    536.67     0  02:58      1.21    0.17    0.42
  WS02003069WS02003072 CONDUIT    553.25     0  03:00      1.37    0.27    0.39
  WS02003072WS02003073 CONDUIT    553.13     0  03:00      1.44    1.19    0.37
  WS02004401WS02004402 CONDUIT    538.38     0  02:54      0.98    0.65    0.86
  WS02004402WS02004403 CONDUIT    538.42     0  02:54      0.97    0.77    0.88
  WS02004403WS02004404 CONDUIT    538.16     0  02:54      0.92    0.39    0.93
  WS02004404WS02004405 CONDUIT    537.97     0  02:54      1.08    5.27    0.96
  WS02004405WS02004406 CONDUIT    538.06     0  02:56      0.99    1.06    0.96
  WS02004406WS02004407 CONDUIT    537.71     0  02:54      1.04    0.24    0.63
  WS02004407WS02004409 CONDUIT    537.49     0  02:54      1.56    0.19    0.48
  WS02004409WS02004410 CONDUIT    537.20     0  02:55      1.05    0.69    0.67
  WS02004410WS02004411 CONDUIT    536.95     0  02:55      1.02    0.73    0.69
  WS02004411WS02004412 CONDUIT    536.94     0  02:57      0.98    0.76    0.69
  WS02004412WS02004413 CONDUIT    536.82     0  02:56      0.82    0.36    0.78
  WS02004413WS02003067 CONDUIT    536.60     0  02:58      1.11    0.23    0.59
  WS02006109WS02006110 CONDUIT    561.99     0  02:11      1.12    1.08    1.00
  WS02006110WS02006113 CONDUIT    568.71     0  02:26      1.38    0.52    0.79
  WS02006111WS02006112 CONDUIT    544.77     0  03:12      1.81    0.26    0.67
  WS02006112WS02006115 CONDUIT    549.06     0  02:30      0.88    0.32    0.87
  WS02006113WS02006111 CONDUIT    565.04     0  03:11      2.47    0.68    0.46
  WS02006115WS02006116 CONDUIT    540.75     0  02:53      1.13    0.69    0.76
  WS02006116WS02004401 CONDUIT    539.73     0  02:53      0.98    0.74    0.84
  WS02006228WS02006109 CONDUIT    559.84     0  02:11      1.11    2.45    1.00
  WS02006229WS02006228 CONDUIT    558.84     0  02:11      1.14    1.85    1.00
  WS02006230WS02006229 CONDUIT    558.45     0  02:11      1.45   12.43    1.00
  WS02006231WS02006230 CONDUIT    580.48     0  02:00      1.58    8.81    1.00
  WS02006232WS02006231 CONDUIT    600.09     0  01:40      1.58    1.26    1.00
  WS02006234WS02006232 CONDUIT    598.47     0  01:40      1.56    1.21    1.00
  WS02006235WS02006234 CONDUIT    599.95     0  01:40      1.57    6.33    1.00
  WS02006238WS02006235 CONDUIT    427.89     0  03:35      1.56    0.96    1.00
  WS02006239WS02006238 CONDUIT    428.79     0  03:35      1.11    1.37    1.00
  WS02006240WS02006239 CONDUIT    429.43     0  03:35      1.24    1.35    1.00
  WS02006242WS02006240 CONDUIT    426.83     0  03:35      1.13    1.70    1.00
  WS02006243WS02006242 CONDUIT    426.08     0  03:35      1.40    0.91    1.00
  WS02006245WS02006243 CONDUIT    425.26     0  03:35      1.45    1.26    1.00
  WS02006247WS02006245 CONDUIT    425.79     0  03:35      1.43    3.38    1.00
  WS02006248WS02006247 CONDUIT    427.27     0  03:35      1.44    0.93    1.00
  WS02006249WS02006248 CONDUIT    427.09     0  03:35      1.36    2.34    1.00
  WS02006251WS02006249 CONDUIT    459.02     0  00:00      1.99    1.32    1.00
  WS02006252WS02006251 CONDUIT    405.47     0  03:22     24.61    1.49    1.00
  WS02006256WS02006235 CONDUIT    289.21     0  01:32      4.23    3.06    1.00
  WSF200WS02003060     CONDUIT    536.93     0  02:58      2.06    0.12    0.28
  YS02001580YS02001583 CONDUIT    158.08     0  01:32      0.87    0.61    1.00
  YS02001583YS02001586 CONDUIT    195.57     0  01:32      0.89    0.30    1.00
  YS02001586YS02001590 CONDUIT    318.54     0  02:03      1.27    0.56    1.00
  YS02001590YS02001593 CONDUIT    318.45     0  02:03      1.13    2.00    1.00
  YS02001593YS02001596 CONDUIT    318.06     0  01:54      1.71    0.50    1.00
  YS02001596YS02001600 CONDUIT    318.17     0  02:03      1.24    0.62    1.00
  YS02001600YS02001601 CONDUIT    318.32     0  02:03      1.13    0.55    1.00
  YS02001601YS02001602 CONDUIT    572.64     0  01:32      2.03    2.07    1.00
  YS02001602YS02001605 CONDUIT    572.71     0  01:32      2.03   12.12    1.00
  YS02001605YS02001607 CONDUIT    572.58     0  01:32      2.03    3.14    1.00
  YS02001607YS02001610 CONDUIT    554.87     0  01:32      0.71    0.53    1.00
  YS02001610YS02001613 CONDUIT    616.43     0  01:44      0.78    0.71    1.00
  YS02001613YS02001616 CONDUIT    616.50     0  01:46      0.78    0.53    1.00
  YS02001616YS02001619 CONDUIT    616.85     0  01:44      0.79    1.07    1.00
  YS02001619YS02001622 CONDUIT   1053.92     0  01:40      1.34    1.55    1.00
  YS02001622YS02001625 CONDUIT   1053.67     0  01:45      1.34    0.56    1.00
  YS02001625YS02001629 CONDUIT    958.71     0  01:32      1.22    0.46    1.00
  YS02001629YS02163301 CONDUIT    907.82     0  01:33      1.16    1.12    1.00
  YS02001633YS02163601 CONDUIT   1428.51     0  01:33      1.82    1.50    1.00
  YS02001641YS02001644 CONDUIT   1427.92     0  01:33      1.82    4.62    1.00
  YS02001644YS02001647 CONDUIT   1917.62     0  01:33      2.44    1.13    1.00
  YS02001647YS02001649 CONDUIT   1917.44     0  01:33      2.44    1.01    1.00
  YS02001649YS02001757 CONDUIT   2183.42     0  01:34      2.78    1.32    1.00
  YS02001652YS02001649 CONDUIT   1280.03     0  01:38      1.63    0.63    1.00
  YS02001655YS02001652 CONDUIT   1279.40     0  01:38      1.63    0.62    1.00
  YS02001658YS02001655 CONDUIT   1279.76     0  01:38      2.03    0.54    1.00
  YS02001661YS02001658 CONDUIT   1280.46     0  01:38      2.42    0.50    1.00
  YS02001664YS02001661 CONDUIT   1279.65     0  01:38      2.53    0.40    1.00
  YS02001745YS02001748 CONDUIT    842.81     0  01:38      2.38    0.32    1.00
  YS02001748YS02001751 CONDUIT    843.50     0  01:38      1.86    0.43    1.00
  YS02001751YS02001754 CONDUIT    843.97     0  01:38      1.56    0.41    1.00
  YS02001754YS02001757 CONDUIT    844.59     0  01:38      1.08    0.34    1.00
  YS02001757CaochengTiaoxuchi CONDUIT   3550.69     0  01:36      4.52    1.54    1.00
  YS02001759YS02001757 CONDUIT   1586.45     0  01:35      2.02    1.13    1.00
  YS02001762YS02001759 CONDUIT    841.87     0  01:35      1.07    0.97    1.00
  YS02001765YS02001762 CONDUIT    842.21     0  01:35      1.07    0.79    1.00
  YS02001767YS02001765 CONDUIT    842.11     0  01:35      1.07    1.06    1.00
  YS02001770YS02001767 CONDUIT    842.54     0  01:35      1.07    3.34    1.00
  YS02001774YS02001770 CONDUIT    851.87     0  01:42      1.08    0.54    1.00
  YS02001779YS02001774 CONDUIT    851.55     0  01:42      1.08    0.43    1.00
  YS02001783YS02001784 CONDUIT   1176.62     0  01:36      2.34    1.62    1.00
  YS02001784YS02001785 CONDUIT   1178.16     0  01:36      2.34    2.74    1.00
  YS02001786YS02001788 CONDUIT   1179.90     0  01:36      2.51    2.27    0.89
  YS02001788YS02001790 CONDUIT   1187.48     0  01:37      2.73    0.88    0.85
  YS02001790YS02001791 CONDUIT   1306.13     0  01:37      3.44    1.42    0.71
  YS02001791YS02001793 CONDUIT   1271.76     0  01:37      6.49    0.55    0.45
  YS02001793JiankangQianchi CONDUIT   1244.05     0  01:37      2.38    0.10    0.65
  YS02001882YS02001884 CONDUIT    109.07     0  01:33      0.18    0.13    1.00
  YS02001884YS02001887 CONDUIT    145.17     0  01:32      0.18    0.19    1.00
  YS02001887YS02001890 CONDUIT   1253.74     0  01:38      1.60    2.15    1.00
  YS02001890YS02001895 CONDUIT    561.43     0  01:33      0.71    0.26    1.00
  YS02001895YS02001898 CONDUIT    560.17     0  01:33      0.71    0.97    1.00
  YS02001898YS02001901 CONDUIT    557.87     0  01:33      0.71    0.36    1.00
  YS02001901YS02001904 CONDUIT    556.94     0  01:33      0.71    0.86    1.00
  YS02001904YS02001907 CONDUIT    557.24     0  01:33      0.71    0.20    1.00
  YS02001907YS02006553 CONDUIT    794.32     0  02:08      0.88    0.93    1.00
  YS02001910YS02001907 CONDUIT   1993.03     0  01:41      2.54    1.12    1.00
  YS02001915YS02001910 CONDUIT   1993.17     0  01:40      2.54    0.99    1.00
  YS02001918YS02001915 CONDUIT    681.28     0  01:40      0.87    0.38    1.00
  YS02001920YS02001918 CONDUIT    681.49     0  01:40      0.87    0.66    1.00
  YS02001923YS02001920 CONDUIT    690.73     0  01:34      0.94    0.31    1.00
  YS02001926YS02001923 CONDUIT    904.08     0  01:34      1.35    1.29    1.00
  YS02001929YS02001926 CONDUIT    677.96     0  01:40      1.22    0.32    1.00
  YS02006553YS02006556 CONDUIT    794.56     0  02:08      1.01    0.68    1.00
  YS02006556YS02006558 CONDUIT    794.90     0  02:08      1.01    0.63    1.00
  YS02006558YS02006561 CONDUIT   1186.54     0  01:34      4.20    2.62    1.00
  YS02006561YS02001783 CONDUIT   1175.22     0  01:36      2.34    0.61    1.00
  YS02163301YS02001633 CONDUIT    907.68     0  01:33      1.16    0.85    1.00
  YS02163601YS02164001 CONDUIT   1428.61     0  01:33      1.82    1.27    1.00
  YS02164001YS02001641 CONDUIT   1428.21     0  01:33      1.82    1.95    1.00
  CC-R1                PUMP       683.00     0  00:00              1.00
  CC-R2                PUMP       683.00     0  00:00              1.00
  CC-S1                PUMP       200.00     0  00:00              1.00
  CC-S2                PUMP       200.00     0  00:00              1.00
  JK-R1                PUMP      1000.00     0  00:00              1.00
  JK-R2                PUMP      1000.00     0  00:00              1.00
  JK-S                 PUMP       300.00     0  00:00              1.00
  
  
  ***************************
  Flow Classification Summary
  ***************************
  
  -------------------------------------------------------------------------------------
                      Adjusted    ---------- Fraction of Time in Flow Class ---------- 
                       /Actual         Up    Down  Sub   Sup   Up    Down  Norm  Inlet 
  Conduit               Length    Dry  Dry   Dry   Crit  Crit  Crit  Crit  Ltd   Ctrl  
  -------------------------------------------------------------------------------------
  1                       1.00   0.00  0.00  0.00  0.00  1.00  0.00  0.00  0.53  0.00
  WS02003060WS02003069    1.00   0.00  0.00  0.00  0.99  0.01  0.00  0.00  0.67  0.00
  WS02003066WSF200        1.00   0.13  0.00  0.00  0.00  0.87  0.00  0.00  0.73  0.00
  WS02003067WS02003066    1.00   0.10  0.02  0.00  0.88  0.00  0.00  0.00  0.00  0.00
  WS02003069WS02003072    1.00   0.00  0.00  0.00  0.99  0.01  0.00  0.00  0.68  0.00
  WS02003072WS02003073    1.00   0.00  0.00  0.00  0.00  0.00  0.00  1.00  0.00  0.00
  WS02004401WS02004402    1.00   0.02  0.00  0.00  0.98  0.00  0.00  0.00  0.00  0.00
  WS02004402WS02004403    1.00   0.02  0.00  0.00  0.97  0.00  0.00  0.00  0.00  0.00
  WS02004403WS02004404    1.00   0.00  0.03  0.00  0.97  0.00  0.00  0.00  0.00  0.00
  WS02004404WS02004405    1.00   0.00  0.00  0.00  1.00  0.00  0.00  0.00  0.01  0.00
  WS02004405WS02004406    1.00   0.00  0.00  0.00  1.00  0.00  0.00  0.00  0.00  0.00
  WS02004406WS02004407    1.00   0.00  0.05  0.00  0.95  0.00  0.00  0.00  0.00  0.00
  WS02004407WS02004409    1.00   0.05  0.00  0.00  0.94  0.01  0.00  0.00  0.94  0.00
  WS02004409WS02004410    1.00   0.05  0.00  0.00  0.95  0.00  0.00  0.00  0.03  0.00
  WS02004410WS02004411    1.00   0.05  0.00  0.00  0.95  0.00  0.00  0.00  0.01  0.00
  WS02004411WS02004412    1.00   0.05  0.00  0.00  0.95  0.00  0.00  0.00  0.00  0.00
  WS02004412WS02004413    1.00   0.05  0.00  0.00  0.94  0.00  0.00  0.00  0.01  0.00
  WS02004413WS02003067    1.00   0.06  0.04  0.00  0.00  0.00  0.90  0.00  0.00  0.00
  WS02006109WS02006110    1.00   0.00  0.01  0.00  0.98  0.00  0.01  0.00  0.00  0.00
  WS02006110WS02006113    1.00   0.01  0.01  0.00  0.98  0.00  0.00  0.00  0.00  0.00
  WS02006111WS02006112    1.00   0.02  0.00  0.00  0.98  0.00  0.00  0.00  0.98  0.00
  WS02006112WS02006115    1.00   0.02  0.00  0.00  0.97  0.00  0.00  0.00  0.00  0.00
  WS02006113WS02006111    1.00   0.02  0.00  0.00  0.00  0.98  0.00  0.00  0.14  0.00
  WS02006115WS02006116    1.00   0.02  0.00  0.00  0.97  0.00  0.00  0.01  0.00  0.00
  WS02006116WS02004401    1.00   0.02  0.00  0.00  0.98  0.00  0.00  0.00  0.00  0.00
  WS02006228WS02006109    1.00   0.00  0.00  0.00  1.00  0.00  0.00  0.00  0.00  0.00
  WS02006229WS02006228    1.00   0.00  0.00  0.00  0.99  0.00  0.00  0.01  0.00  0.00
  WS02006230WS02006229    1.00   0.00  0.00  0.00  0.99  0.00  0.00  0.01  0.02  0.00
  WS02006231WS02006230    1.00   0.00  0.00  0.00  0.31  0.00  0.68  0.00  0.00  0.00
  WS02006232WS02006231    1.00   0.00  0.00  0.00  0.98  0.00  0.01  0.00  0.00  0.00
  WS02006234WS02006232    1.00   0.00  0.00  0.00  1.00  0.00  0.00  0.00  0.24  0.00
  WS02006235WS02006234    1.00   0.00  0.00  0.00  0.71  0.00  0.29  0.00  0.00  0.00
  WS02006238WS02006235    1.00   0.00  0.00  0.00  1.00  0.00  0.00  0.00  0.00  0.00
  WS02006239WS02006238    1.00   0.00  0.00  0.00  1.00  0.00  0.00  0.00  0.35  0.00
  WS02006240WS02006239    1.00   0.00  0.00  0.00  0.60  0.00  0.00  0.40  0.02  0.00
  WS02006242WS02006240    1.00   0.00  0.00  0.00  0.99  0.00  0.01  0.00  0.00  0.00
  WS02006243WS02006242    1.00   0.00  0.00  0.00  0.98  0.00  0.00  0.01  0.49  0.00
  WS02006245WS02006243    1.00   0.00  0.00  0.00  0.66  0.00  0.00  0.34  0.00  0.00
  WS02006247WS02006245    1.00   0.00  0.00  0.00  0.98  0.00  0.00  0.01  0.00  0.00
  WS02006248WS02006247    1.00   0.00  0.00  0.00  0.99  0.00  0.00  0.01  0.19  0.00
  WS02006249WS02006248    1.00   0.00  0.00  0.00  0.50  0.00  0.50  0.00  0.00  0.00
  WS02006251WS02006249    1.00   0.00  0.00  0.00  1.00  0.00  0.00  0.00  0.51  0.00
  WS02006252WS02006251    1.00   0.00  0.54  0.00  0.16  0.00  0.30  0.00  0.00  0.00
  WS02006256WS02006235    1.00   0.00  0.00  0.00  1.00  0.00  0.00  0.00  0.00  0.00
  WSF200WS02003060        1.00   0.00  0.13  0.00  0.30  0.57  0.00  0.00  0.45  0.00
  YS02001580YS02001583    1.00   0.19  0.57  0.00  0.24  0.00  0.00  0.00  0.66  0.00
  YS02001583YS02001586    1.00   0.41  0.29  0.00  0.30  0.00  0.00  0.00  0.66  0.00
  YS02001586YS02001590    1.00   0.13  0.00  0.00  0.44  0.04  0.00  0.39  0.32  0.00
  YS02001590YS02001593    1.00   0.13  0.01  0.00  0.17  0.00  0.70  0.00  0.00  0.00
  YS02001593YS02001596    1.00   0.13  0.00  0.00  0.19  0.01  0.00  0.67  0.02  0.00
  YS02001596YS02001600    1.00   0.13  0.00  0.00  0.23  0.01  0.00  0.62  0.03  0.00
  YS02001600YS02001601    1.00   0.13  0.01  0.00  0.86  0.00  0.00  0.00  0.58  0.00
  YS02001601YS02001602    1.00   0.13  0.01  0.00  0.87  0.00  0.00  0.00  0.00  0.00
  YS02001602YS02001605    1.00   0.13  0.00  0.00  0.87  0.00  0.00  0.00  0.00  0.00
  YS02001605YS02001607    1.00   0.13  0.00  0.00  0.87  0.00  0.00  0.00  0.00  0.00
  YS02001607YS02001610    1.00   0.13  0.01  0.00  0.86  0.00  0.00  0.00  0.01  0.00
  YS02001610YS02001613    1.00   0.13  0.00  0.00  0.87  0.00  0.00  0.00  0.00  0.00
  YS02001613YS02001616    1.00   0.13  0.00  0.00  0.87  0.00  0.00  0.00  0.00  0.00
  YS02001616YS02001619    1.00   0.13  0.00  0.00  0.87  0.00  0.00  0.00  0.00  0.00
  YS02001619YS02001622    1.00   0.13  0.00  0.00  0.87  0.00  0.00  0.00  0.28  0.00
  YS02001622YS02001625    1.00   0.13  0.00  0.00  0.87  0.00  0.00  0.00  0.03  0.00
  YS02001625YS02001629    1.00   0.13  0.04  0.00  0.21  0.00  0.63  0.00  0.00  0.00
  YS02001629YS02163301    1.00   0.14  0.01  0.00  0.85  0.00  0.00  0.00  0.00  0.00
  YS02001633YS02163601    1.00   0.00  0.01  0.00  0.99  0.00  0.00  0.00  0.14  0.00
  YS02001641YS02001644    1.00   0.00  0.01  0.00  0.99  0.00  0.00  0.00  0.00  0.00
  YS02001644YS02001647    1.00   0.00  0.16  0.00  0.84  0.00  0.00  0.00  0.00  0.00
  YS02001647YS02001649    1.00   0.00  0.16  0.00  0.60  0.24  0.00  0.00  0.55  0.00
  YS02001649YS02001757    1.00   0.00  0.00  0.00  0.90  0.10  0.00  0.00  0.40  0.00
  YS02001652YS02001649    1.00   0.00  0.00  0.00  0.97  0.03  0.00  0.00  0.70  0.00
  YS02001655YS02001652    1.00   0.00  0.00  0.00  0.24  0.00  0.00  0.76  0.03  0.00
  YS02001658YS02001655    1.00   0.00  0.14  0.00  0.73  0.14  0.00  0.00  0.63  0.00
  YS02001661YS02001658    1.00   0.14  0.00  0.00  0.57  0.30  0.00  0.00  0.67  0.00
  YS02001664YS02001661    1.00   0.13  0.00  0.00  0.79  0.08  0.00  0.00  0.83  0.00
  YS02001745YS02001748    1.00   0.00  0.00  0.00  0.17  0.01  0.00  0.82  0.05  0.00
  YS02001748YS02001751    1.00   0.00  0.00  0.00  0.89  0.11  0.00  0.00  0.74  0.00
  YS02001751YS02001754    1.00   0.00  0.00  0.00  0.23  0.00  0.00  0.77  0.03  0.00
  YS02001754YS02001757    1.00   0.00  0.00  0.00  1.00  0.00  0.00  0.00  0.76  0.00
  YS02001757CaochengTiaoxuchi    1.00   0.00  0.00  0.00  1.00  0.00  0.00  0.00  0.49  0.00
  YS02001759YS02001757    1.00   0.00  0.00  0.00  0.98  0.02  0.00  0.00  0.51  0.00
  YS02001762YS02001759    1.00   0.00  0.00  0.00  1.00  0.00  0.00  0.00  0.04  0.00
  YS02001765YS02001762    1.00   0.00  0.00  0.00  1.00  0.00  0.00  0.00  0.63  0.00
  YS02001767YS02001765    1.00   0.00  0.00  0.00  1.00  0.00  0.00  0.00  0.01  0.00
  YS02001770YS02001767    1.00   0.00  0.00  0.00  1.00  0.00  0.00  0.00  0.00  0.00
  YS02001774YS02001770    1.00   0.00  0.13  0.00  0.71  0.00  0.16  0.00  0.02  0.00
  YS02001779YS02001774    1.00   0.00  0.00  0.00  1.00  0.00  0.00  0.00  0.73  0.00
  YS02001783YS02001784    1.00   0.00  0.16  0.00  0.84  0.00  0.00  0.00  0.55  0.00
  YS02001784YS02001785    1.00   0.00  0.00  0.00  1.00  0.00  0.00  0.00  0.15  0.00
  YS02001786YS02001788    1.00   0.00  0.00  0.00  0.80  0.20  0.00  0.00  0.00  0.00
  YS02001788YS02001790    1.00   0.00  0.00  0.00  0.21  0.79  0.00  0.00  0.78  0.00
  YS02001790YS02001791    1.00   0.00  0.00  0.00  0.01  0.99  0.00  0.00  0.16  0.00
  YS02001791YS02001793    1.00   0.00  0.00  0.00  0.00  1.00  0.00  0.00  0.02  0.00
  YS02001793JiankangQianchi    1.00   0.00  0.00  0.00  0.99  0.01  0.00  0.00  0.92  0.00
  YS02001882YS02001884    1.00   0.14  0.01  0.00  0.85  0.00  0.00  0.00  0.00  0.00
  YS02001884YS02001887    1.00   0.06  0.05  0.00  0.89  0.00  0.00  0.00  0.00  0.00
  YS02001887YS02001890    1.00   0.00  0.00  0.00  0.97  0.00  0.03  0.00  0.00  0.00
  YS02001890YS02001895    1.00   0.00  0.15  0.00  0.85  0.00  0.00  0.00  0.00  0.00
  YS02001895YS02001898    1.00   0.15  0.00  0.00  0.83  0.00  0.01  0.00  0.00  0.00
  YS02001898YS02001901    1.00   0.15  0.00  0.00  0.85  0.00  0.00  0.00  0.00  0.00
  YS02001901YS02001904    1.00   0.15  0.00  0.00  0.85  0.00  0.00  0.00  0.00  0.00
  YS02001904YS02001907    1.00   0.00  0.15  0.00  0.85  0.00  0.00  0.00  0.00  0.00
  YS02001907YS02006553    1.00   0.00  0.02  0.00  0.98  0.00  0.00  0.00  0.00  0.00
  YS02001910YS02001907    1.00   0.00  0.00  0.00  0.97  0.00  0.00  0.03  0.12  0.00
  YS02001915YS02001910    1.00   0.00  0.00  0.00  0.97  0.03  0.00  0.00  0.13  0.00
  YS02001918YS02001915    1.00   0.00  0.01  0.00  0.98  0.02  0.00  0.00  0.71  0.00
  YS02001920YS02001918    1.00   0.00  0.01  0.00  0.99  0.00  0.00  0.00  0.00  0.00
  YS02001923YS02001920    1.00   0.00  0.00  0.00  1.00  0.00  0.00  0.00  0.89  0.00
  YS02001926YS02001923    1.00   0.00  0.07  0.00  0.09  0.00  0.84  0.00  0.00  0.00
  YS02001929YS02001926    1.00   0.00  0.13  0.00  0.87  0.00  0.00  0.00  0.79  0.00
  YS02006553YS02006556    1.00   0.01  0.00  0.00  0.99  0.00  0.00  0.00  0.03  0.00
  YS02006556YS02006558    1.00   0.00  0.00  0.00  1.00  0.00  0.00  0.00  0.00  0.00
  YS02006558YS02006561    1.00   0.16  0.00  0.00  0.08  0.75  0.00  0.00  0.17  0.00
  YS02006561YS02001783    1.00   0.16  0.00  0.00  0.12  0.72  0.00  0.00  0.66  0.00
  YS02163301YS02001633    1.00   0.00  0.14  0.00  0.86  0.00  0.00  0.00  0.00  0.00
  YS02163601YS02164001    1.00   0.00  0.08  0.00  0.92  0.00  0.00  0.00  0.00  0.00
  YS02164001YS02001641    1.00   0.01  0.07  0.00  0.92  0.00  0.00  0.00  0.05  0.00
  
  
  *************************
  Conduit Surcharge Summary
  *************************
  
  ----------------------------------------------------------------------------
                                                           Hours        Hours 
                         --------- Hours Full --------   Above Full   Capacity
  Conduit                Both Ends  Upstream  Dnstream   Normal Flow   Limited
  ----------------------------------------------------------------------------
  WS02003072WS02003073        0.01      0.01      0.01      1.58         0.01
  WS02004404WS02004405        0.01      0.01      0.01      3.67         0.01
  WS02004405WS02004406        0.01      0.01      0.01      0.98         0.01
  WS02006109WS02006110        0.99      0.99      2.41      1.13         0.01
  WS02006110WS02006113        0.01      0.01      2.38      0.01         0.01
  WS02006111WS02006112        0.01      0.01      2.60      0.01         0.01
  WS02006112WS02006115        0.01      0.01      1.09      0.01         0.01
  WS02006228WS02006109        2.36      2.41      2.36      2.70         2.36
  WS02006229WS02006228        2.35      2.38      2.35      2.55         2.34
  WS02006230WS02006229        2.47      2.54      2.47      4.27         2.47
  WS02006231WS02006230        1.00      1.00      1.26      3.96         0.01
  WS02006232WS02006231        1.18      1.18      2.44      1.26         0.01
  WS02006234WS02006232        2.29      2.29      2.44      1.23         1.21
  WS02006235WS02006234        1.53      1.54      2.31      3.82         0.03
  WS02006238WS02006235        2.34      2.34      2.43      0.01         0.01
  WS02006239WS02006238        2.36      2.38      2.39      2.39         2.15
  WS02006240WS02006239        2.33      2.36      2.33      2.39         2.03
  WS02006242WS02006240        2.36      2.36      2.38      2.51         0.01
  WS02006243WS02006242        2.36      2.36      2.37      0.01         0.07
  WS02006245WS02006243        2.35      2.35      2.36      1.38         1.38
  WS02006247WS02006245        2.35      2.35      2.35      3.65         2.33
  WS02006248WS02006247        2.34      2.34      2.35      0.01         0.07
  WS02006249WS02006248        2.34      2.34      2.34      3.61         0.01
  WS02006251WS02006249        2.34      2.34      2.34      2.45         2.25
  WS02006252WS02006251        2.49      2.49      2.49      2.49         0.01
  WS02006256WS02006235        3.82      3.88      5.12      1.54         0.01
  YS02001580YS02001583        0.92      0.92      0.99      0.01         0.01
  YS02001583YS02001586        0.93      0.93      1.13      0.01         0.01
  YS02001586YS02001590        1.14      1.14      1.22      0.01         0.01
  YS02001590YS02001593        1.22      1.22      1.24      1.29         0.01
  YS02001593YS02001596        1.23      1.23      1.35      0.01         0.01
  YS02001596YS02001600        1.41      1.41      1.54      0.01         0.01
  YS02001600YS02001601        1.59      1.59      1.76      0.01         0.01
  YS02001601YS02001602        1.70      1.70      1.79      1.51         0.01
  YS02001602YS02001605        1.67      1.67      1.70      2.42         0.01
  YS02001605YS02001607        1.64      1.67      1.64      1.73         1.64
  YS02001607YS02001610        1.24      1.24      1.28      0.01         0.01
  YS02001610YS02001613        1.24      1.24      1.28      0.01         0.01
  YS02001613YS02001616        1.19      1.19      1.24      0.01         0.01
  YS02001616YS02001619        1.17      1.17      1.19      0.14         0.11
  YS02001619YS02001622        1.17      1.17      1.18      1.14         1.03
  YS02001622YS02001625        1.18      1.18      1.39      0.01         0.01
  YS02001625YS02001629        1.11      1.11      1.39      0.01         0.01
  YS02001629YS02163301        1.40      1.40      1.41      0.02         0.09
  YS02001633YS02163601        1.43      1.43      1.48      0.14         0.21
  YS02001641YS02001644        1.38      1.40      1.38      1.81         1.36
  YS02001644YS02001647        1.15      1.15      1.38      0.04         0.01
  YS02001647YS02001649        1.15      1.15      1.32      0.01         0.01
  YS02001649YS02001757        1.32      1.32      1.42      0.04         0.02
  YS02001652YS02001649        1.12      1.12      1.32      0.01         0.01
  YS02001655YS02001652        0.83      0.83      1.08      0.01         0.01
  YS02001658YS02001655        0.44      0.44      0.83      0.01         0.01
  YS02001661YS02001658        0.17      0.17      0.44      0.01         0.01
  YS02001664YS02001661        0.01      0.01      0.21      0.01         0.01
  YS02001745YS02001748        0.01      0.01      0.34      0.01         0.01
  YS02001748YS02001751        0.40      0.40      0.66      0.01         0.01
  YS02001751YS02001754        0.66      0.66      1.00      0.01         0.01
  YS02001754YS02001757        1.05      1.05      1.42      0.01         0.01
  YS02001757CaochengTiaoxuchi        1.39      1.42      2.36      0.47         0.43
  YS02001759YS02001757        1.31      1.31      1.42      0.11         0.10
  YS02001762YS02001759        1.27      1.27      1.31      0.01         0.02
  YS02001765YS02001762        1.23      1.23      1.27      0.01         0.01
  YS02001767YS02001765        1.18      1.18      1.23      0.01         0.02
  YS02001770YS02001767        1.18      1.18      1.18      0.76         0.73
  YS02001774YS02001770        1.14      1.14      1.25      0.01         0.01
  YS02001779YS02001774        0.96      0.96      1.25      0.01         0.01
  YS02001783YS02001784        0.74      0.77      0.74      0.93         0.74
  YS02001784YS02001785        0.62      0.74      0.62      1.26         0.62
  YS02001786YS02001788        0.01      0.62      0.01      1.06         0.01
  YS02001790YS02001791        0.01      0.01      0.01      0.73         0.01
  YS02001793JiankangQianchi        0.01      0.01      7.70      0.01         0.01
  YS02001882YS02001884        0.70      0.70      0.71      0.01         0.01
  YS02001884YS02001887        0.74      0.74      0.75      0.01         0.01
  YS02001887YS02001890        0.77      0.77      0.78      0.23         0.01
  YS02001890YS02001895        0.69      0.69      0.80      0.01         0.01
  YS02001895YS02001898        0.68      0.68      0.69      0.01         0.01
  YS02001898YS02001901        0.69      0.69      0.74      0.01         0.01
  YS02001901YS02001904        0.73      0.73      0.74      0.01         0.01
  YS02001904YS02001907        0.73      0.73      1.03      0.01         0.01
  YS02001907YS02006553        1.27      1.27      1.36      0.01         0.01
  YS02001910YS02001907        0.80      0.80      1.00      0.12         0.13
  YS02001915YS02001910        0.70      0.70      0.80      0.01         0.01
  YS02001918YS02001915        0.60      0.60      0.70      0.01         0.01
  YS02001920YS02001918        0.60      0.60      0.62      0.01         0.01
  YS02001923YS02001920        0.55      0.55      0.62      0.01         0.01
  YS02001926YS02001923        0.26      0.26      0.28      0.01         0.01
  YS02001929YS02001926        0.14      0.14      0.28      0.01         0.01
  YS02006553YS02006556        0.89      0.89      1.03      0.01         0.01
  YS02006556YS02006558        0.95      0.95      1.07      0.01         0.01
  YS02006558YS02006561        0.64      0.89      0.64      1.18         0.64
  YS02006561YS02001783        0.56      0.56      0.77      0.01         0.01
  YS02163301YS02001633        1.41      1.41      1.46      0.01         0.01
  YS02163601YS02164001        1.39      1.39      1.48      0.04         0.01
  YS02164001YS02001641        1.39      1.39      1.40      0.84         0.82
  
  
  ***************
  Pumping Summary
  ***************
  
  ---------------------------------------------------------------------------------------------------------
                                                  Min       Avg       Max     Total     Power    % Time Off
                        Percent   Number of      Flow      Flow      Flow    Volume     Usage    Pump Curve
  Pump                 Utilized   Start-Ups       LPS       LPS       LPS  10^6 ltr     Kw-hr    Low   High
  ---------------------------------------------------------------------------------------------------------
  CC-R1                   23.17           2      0.00    683.00    683.00     4.558     88.15    0.0    4.5
  CC-R2                   20.19           2      0.00    683.00    683.00     3.971     77.36    0.0    5.2
  CC-S1                   46.34           4      0.00    200.00    200.00     2.669     14.54    0.0    0.0
  CC-S2                   31.10           2      0.00    200.00    200.00     1.791      9.26    0.0    0.0
  JK-R1                    9.62          16      0.00   1000.00   1000.00     2.770     33.62    0.0    0.0
  JK-R2                    2.20           4      0.00   1000.00   1000.00     0.634      5.09    0.0    0.0
  JK-S                    19.26          21      0.00    300.00    300.00     1.664     23.99    0.0    0.0
  

  Analysis begun on:  Tue Apr 15 14:19:47 2025
  Analysis ended on:  Tue Apr 15 14:19:49 2025
  Total elapsed time: 00:00:02