
  EPA STORM WATER MANAGEMENT MODEL - VERSION 5.2 (Build 5.2.4)
  PYSWMM TOOLKIT API - VERSION v1.0 (2023-11-27)
  ------------------------------------------------------------

  WARNING 04: minimum elevation drop used for Conduit WS02004404WS02004405
  WARNING 03: negative offset ignored for Link YS02001904YS02001907
  
  ****************
  Analysis Options
  ****************
  Flow Units ............... LPS
  Process Models:
    Rainfall/Runoff ........ YES
    RDII ................... NO
    Snowmelt ............... NO
    Groundwater ............ NO
    Flow Routing ........... YES
    Ponding Allowed ........ NO
    Water Quality .......... NO
  Infiltration Method ...... HORTON
  Flow Routing Method ...... DYNWAVE
  Surcharge Method ......... EXTRAN
  Starting Date ............ 08/28/2015 08:00:00
  Ending Date .............. 08/28/2015 16:00:00
  Antecedent Dry Days ...... 8.0
  Report Time Step ......... 00:01:00
  Wet Time Step ............ 00:01:00
  Dry Time Step ............ 00:01:00
  Routing Time Step ........ 30.00 sec
  Variable Time Step ....... YES
  Maximum Trials ........... 8
  Number of Threads ........ 4
  Head Tolerance ........... 0.001500 m
  
  
  **************************        Volume         Depth
  Runoff Quantity Continuity     hectare-m            mm
  **************************     ---------       -------
  Total Precipitation ......         3.308        99.722
  Evaporation Loss .........         0.000         0.000
  Infiltration Loss ........         0.107         3.222
  Surface Runoff ...........         3.168        95.522
  Final Storage ............         0.033         0.998
  Continuity Error (%) .....        -0.020
  
  
  **************************        Volume        Volume
  Flow Routing Continuity        hectare-m      10^6 ltr
  **************************     ---------     ---------
  Dry Weather Inflow .......         0.025         0.251
  Wet Weather Inflow .......         3.168        31.681
  Groundwater Inflow .......         0.000         0.000
  RDII Inflow ..............         0.000         0.000
  External Inflow ..........         0.083         0.834
  External Outflow .........         1.795        17.949
  Flooding Loss ............         1.450        14.502
  Evaporation Loss .........         0.000         0.000
  Exfiltration Loss ........         0.000         0.000
  Initial Stored Volume ....         0.243         2.431
  Final Stored Volume ......         0.278         2.776
  Continuity Error (%) .....        -0.088
  
  
  *************************
  Highest Continuity Errors
  *************************
  Node YS02001884 (5.10%)
  Node YS02001583 (-2.43%)
  
  
  ***************************
  Time-Step Critical Elements
  ***************************
  Link WS02006252WS02006251 (41.03%)
  Link WS02004404WS02004405 (15.77%)
  Link WS02006238WS02006235 (11.04%)
  Link YS02001791YS02001793 (9.21%)
  Link WS02006235WS02006234 (7.14%)
  
  
  ********************************
  Highest Flow Instability Indexes
  ********************************
  Link WS02006113WS02006111 (47)
  Link WS02006111WS02006112 (27)
  Link WS02004404WS02004405 (22)
  Link WS02006238WS02006235 (20)
  Link WS02006252WS02006251 (20)
  
  
  *********************************
  Most Frequent Nonconverging Nodes
  *********************************
  Node CC-1 (14.58%)
  Node CC-2 (14.58%)
  Node JK-1 (14.58%)
  Node JK-2 (14.58%)
  Node WSC (14.58%)
  
  
  *************************
  Routing Time Step Summary
  *************************
  Minimum Time Step           :     0.00 sec
  Average Time Step           :     2.02 sec
  Maximum Time Step           :     7.04 sec
  % of Time in Steady State   :     0.00
  Average Iterations per Step :     3.31
  % of Steps Not Converging   :    14.58
  Time Step Frequencies       :
     30.000 - 13.228 sec      :     0.00 %
     13.228 -  5.833 sec      :     7.88 %
      5.833 -  2.572 sec      :    19.57 %
      2.572 -  1.134 sec      :    24.10 %
      1.134 -  0.500 sec      :    48.45 %
  
  
  ***************************
  Subcatchment Runoff Summary
  ***************************
  
  ------------------------------------------------------------------------------------------------------------------------------
                            Total      Total      Total      Total     Imperv       Perv      Total       Total     Peak  Runoff
                           Precip      Runon       Evap      Infil     Runoff     Runoff     Runoff      Runoff   Runoff   Coeff
  Subcatchment                 mm         mm         mm         mm         mm         mm         mm    10^6 ltr      LPS
  ------------------------------------------------------------------------------------------------------------------------------
  sub60                     99.72       0.00       0.00       1.90      86.56      10.07      96.63        1.27   840.75   0.969
  sub61                     99.72       0.00       0.00       2.76      81.65      14.19      95.84        1.76  1170.65   0.961
  sub62                     99.72       0.00       0.00       1.26      90.46       6.71      97.18        2.66  1670.89   0.974
  sub63                     99.72       0.00       0.00       5.14      69.84      23.78      93.62        2.13  1363.16   0.939
  sub64                     99.72       0.00       0.00       2.59      83.56      12.37      95.93        2.30  1393.10   0.962
  sub65                     99.72       0.00       0.00       2.24      85.51      10.72      96.23        2.65  1563.79   0.965
  sub66                     99.72       0.00       0.00       6.44      69.73      22.48      92.20        4.30  2197.80   0.925
  sub67                     99.72       0.00       0.00       1.21      90.51       6.77      97.28        1.81  1235.63   0.976
  sub68                     99.72       0.00       0.00       2.29      84.58      11.67      96.25        2.65  1707.81   0.965
  sub69                     99.72       0.00       0.00       2.09      84.65      12.87      97.52        3.61  2080.14   0.978
  sub70                     99.72       0.00       0.00       7.07      65.65      26.84      92.49        2.67  1245.89   0.927
  sub71                     99.72       0.00       0.00       1.30      90.42       6.68      97.10        2.54  1502.27   0.974
  sub72                     99.72       0.00       0.00       1.16      91.34       5.82      97.16        1.34   739.63   0.974
  
  
  ******************
  Node Depth Summary
  ******************
  
  ---------------------------------------------------------------------------------
                                 Average  Maximum  Maximum  Time of Max    Reported
                                   Depth    Depth      HGL   Occurrence   Max Depth
  Node                 Type       Meters   Meters   Meters  days hr:min      Meters
  ---------------------------------------------------------------------------------
  WS02003060           JUNCTION     0.25     0.38     5.32     0  03:01        0.38
  WS02003066           JUNCTION     0.21     0.30     5.85     0  03:01        0.30
  WS02003067           JUNCTION     0.52     0.70     6.02     0  03:01        0.70
  WS02003069           JUNCTION     0.28     0.43     5.02     0  03:02        0.43
  WS02003072           JUNCTION     0.34     0.50     4.87     0  03:03        0.50
  WS02003073           JUNCTION     0.20     0.30     4.36     0  03:04        0.30
  WS02004401           JUNCTION     0.63     0.88     6.88     0  02:56        0.88
  WS02004402           JUNCTION     0.66     0.91     6.87     0  02:56        0.90
  WS02004403           JUNCTION     0.68     0.92     6.85     0  02:56        0.92
  WS02004404           JUNCTION     0.76     1.03     6.88     0  02:20        1.02
  WS02004405           JUNCTION     0.74     0.97     6.82     0  02:57        0.97
  WS02004406           JUNCTION     0.75     0.96     6.79     0  02:59        0.96
  WS02004407           JUNCTION     0.19     0.30     6.61     0  02:59        0.30
  WS02004409           JUNCTION     0.42     0.67     6.44     0  02:59        0.67
  WS02004410           JUNCTION     0.44     0.68     6.40     0  03:00        0.68
  WS02004411           JUNCTION     0.46     0.69     6.37     0  03:00        0.69
  WS02004412           JUNCTION     0.48     0.70     6.34     0  03:00        0.70
  WS02004413           JUNCTION     0.64     0.86     6.33     0  03:01        0.86
  WS02006109           JUNCTION     0.68     1.22     7.84     0  02:11        1.00
  WS02006110           JUNCTION     0.68     1.35     7.94     0  02:11        0.95
  WS02006111           JUNCTION     0.19     0.29     6.99     0  02:32        0.29
  WS02006112           JUNCTION     0.79     1.11     6.99     0  03:28        1.08
  WS02006113           JUNCTION     0.29     0.46     7.35     0  02:32        0.46
  WS02006115           JUNCTION     0.51     0.78     6.91     0  02:59        0.78
  WS02006116           JUNCTION     0.60     0.86     6.90     0  03:00        0.86
  WS02006228           JUNCTION     0.68     1.25     7.91     0  02:36        1.21
  WS02006229           JUNCTION     0.65     1.30     7.99     0  02:36        1.24
  WS02006230           JUNCTION     0.66     1.51     8.26     0  02:36        1.21
  WS02006231           JUNCTION     0.46     1.45     8.58     0  02:15        1.25
  WS02006232           JUNCTION     0.60     1.53     8.57     0  02:27        1.53
  WS02006234           JUNCTION     0.53     1.96     9.12     0  02:27        1.96
  WS02006235           JUNCTION     0.57     2.00     9.16     0  02:27        2.00
  WS02006238           JUNCTION     0.60     1.88     9.02     0  02:36        1.88
  WS02006239           JUNCTION     0.57     1.88     9.09     0  02:36        1.88
  WS02006240           JUNCTION     0.53     1.87     9.16     0  02:27        1.87
  WS02006242           JUNCTION     0.60     1.55     8.82     0  02:27        1.55
  WS02006243           JUNCTION     0.51     1.48     8.90     0  02:27        1.48
  WS02006245           JUNCTION     0.51     1.56     9.04     0  02:27        1.56
  WS02006247           JUNCTION     0.54     1.47     8.97     0  02:27        1.47
  WS02006248           JUNCTION     0.50     1.10     8.69     0  01:59        1.10
  WS02006249           JUNCTION     0.53     1.09     8.69     0  01:44        1.09
  WS02006251           JUNCTION     0.53     1.40     9.07     0  01:52        1.13
  WS02006252           JUNCTION     0.38     1.50     9.74     0  00:00        0.79
  WS02006256           JUNCTION     1.09     2.35     9.28     0  00:00        2.35
  WSF200               JUNCTION     0.18     0.29     5.52     0  03:01        0.29
  YS02001580           JUNCTION     0.12     0.94     9.48     0  01:59        0.77
  YS02001583           JUNCTION     0.15     1.14     9.64     0  02:27        1.14
  YS02001586           JUNCTION     0.24     1.13     9.30     0  01:59        1.13
  YS02001590           JUNCTION     0.34     1.40     9.26     0  02:27        1.40
  YS02001593           JUNCTION     0.27     1.33     9.20     0  02:27        1.32
  YS02001596           JUNCTION     0.37     1.80     9.22     0  02:27        1.80
  YS02001600           JUNCTION     0.44     1.87     9.00     0  01:59        1.87
  YS02001601           JUNCTION     0.64     2.06     8.90     0  01:59        2.06
  YS02001602           JUNCTION     0.54     1.87     8.77     0  02:02        1.87
  YS02001605           JUNCTION     0.51     1.78     8.68     0  02:13        1.78
  YS02001607           JUNCTION     0.50     1.68     8.53     0  02:13        1.68
  YS02001610           JUNCTION     0.54     1.68     8.48     0  02:04        1.68
  YS02001613           JUNCTION     0.50     1.70     8.54     0  02:13        1.70
  YS02001616           JUNCTION     0.43     1.61     8.52     0  02:18        1.61
  YS02001619           JUNCTION     0.41     1.61     8.54     0  02:13        1.61
  YS02001622           JUNCTION     0.40     1.62     8.52     0  02:13        1.62
  YS02001625           JUNCTION     0.67     1.78     8.38     0  02:04        1.78
  YS02001629           JUNCTION     0.53     1.85     8.40     0  02:07        1.85
  YS02001633           JUNCTION     0.61     2.08     8.53     0  02:13        2.08
  YS02001641           JUNCTION     0.60     2.10     8.54     0  02:13        2.10
  YS02001644           JUNCTION     0.59     1.92     8.35     0  02:08        1.92
  YS02001647           JUNCTION     0.38     1.90     8.51     0  02:13        1.90
  YS02001649           JUNCTION     0.44     2.05     8.44     0  02:13        2.05
  YS02001652           JUNCTION     0.33     2.00     8.59     0  02:36        2.00
  YS02001655           JUNCTION     0.26     1.78     8.63     0  02:24        1.77
  YS02001658           JUNCTION     0.19     1.61     8.75     0  02:08        1.57
  YS02001661           JUNCTION     0.20     1.41     8.81     0  02:24        1.40
  YS02001664           JUNCTION     0.07     0.98     8.90     0  02:24        0.96
  YS02001745           JUNCTION     0.11     1.06     8.58     0  02:24        1.05
  YS02001748           JUNCTION     0.19     1.46     8.54     0  02:24        1.45
  YS02001751           JUNCTION     0.23     1.67     8.54     0  02:13        1.67
  YS02001754           JUNCTION     0.30     2.07     8.68     0  02:13        2.07
  YS02001757           JUNCTION     0.48     2.21     8.47     0  02:13        2.21
  YS02001759           JUNCTION     0.41     2.21     8.57     0  02:13        2.21
  YS02001762           JUNCTION     0.40     2.15     8.55     0  02:13        2.15
  YS02001765           JUNCTION     0.38     2.10     8.55     0  02:13        2.10
  YS02001767           JUNCTION     0.37     2.03     8.52     0  02:13        2.03
  YS02001770           JUNCTION     0.38     1.95     8.44     0  02:13        1.95
  YS02001774           JUNCTION     0.44     2.05     8.47     0  02:27        2.00
  YS02001779           JUNCTION     0.28     1.68     8.37     0  02:05        1.68
  YS02001783           JUNCTION     0.28     2.40     8.54     0  02:27        2.40
  YS02001784           JUNCTION     0.28     2.29     8.36     0  02:27        1.16
  YS02001786           JUNCTION     0.24     0.92     6.95     0  02:32        0.88
  YS02001788           JUNCTION     0.17     0.63     6.60     0  02:22        0.63
  YS02001790           JUNCTION     0.20     0.73     6.37     0  02:26        0.73
  YS02001791           JUNCTION     0.13     0.44     5.91     0  02:22        0.44
  YS02001793           JUNCTION     0.07     0.31     5.14     0  02:20        0.29
  YS02001882           JUNCTION     0.35     1.83     8.55     0  02:32        1.83
  YS02001884           JUNCTION     0.44     1.93     8.55     0  02:32        1.93
  YS02001887           JUNCTION     0.52     2.00     8.54     0  02:13        2.00
  YS02001890           JUNCTION     0.55     1.81     8.32     0  02:08        1.81
  YS02001895           JUNCTION     0.32     1.75     8.50     0  02:27        1.75
  YS02001898           JUNCTION     0.33     1.77     8.51     0  02:32        1.77
  YS02001901           JUNCTION     0.44     1.84     8.45     0  02:32        1.84
  YS02001904           JUNCTION     0.42     1.73     8.36     0  02:32        1.73
  YS02001907           JUNCTION     0.75     1.96     8.25     0  02:08        1.96
  YS02001910           JUNCTION     0.55     2.10     8.61     0  02:27        2.10
  YS02001915           JUNCTION     0.36     2.00     8.72     0  02:23        2.00
  YS02001918           JUNCTION     0.21     1.81     8.88     0  02:27        1.81
  YS02001920           JUNCTION     0.29     1.86     8.87     0  02:27        1.81
  YS02001923           JUNCTION     0.16     2.03     9.29     0  02:27        2.03
  YS02001926           JUNCTION     0.19     1.51     8.95     0  02:27        1.51
  YS02001929           JUNCTION     0.12     1.28     8.97     0  02:27        1.22
  YS02006553           JUNCTION     0.75     2.19     8.47     0  02:27        2.19
  YS02006556           JUNCTION     0.72     2.15     8.46     0  02:27        2.06
  YS02006558           JUNCTION     0.76     2.50     8.77     0  02:27        2.50
  YS02006561           JUNCTION     0.17     1.09     7.75     0  02:27        0.92
  YS02163301           JUNCTION     0.55     2.03     8.55     0  02:13        2.03
  YS02163601           JUNCTION     0.65     2.08     8.48     0  02:08        2.08
  YS02164001           JUNCTION     0.58     2.10     8.56     0  02:27        2.04
  CC-1                 OUTFALL      0.00     0.00     0.00     0  00:00        0.00
  CC-2                 OUTFALL      0.00     0.00     0.00     0  00:00        0.00
  JK-1                 OUTFALL      0.00     0.00     0.00     0  00:00        0.00
  JK-2                 OUTFALL      0.00     0.00     0.00     0  00:00        0.00
  WSC                  OUTFALL      0.20     0.30     0.97     0  03:04        0.30
  CC-storage           STORAGE      1.07     2.02     7.52     0  02:47        2.02
  JK-storage           STORAGE      3.10     4.24     5.04     0  02:20        4.20
  
  
  *******************
  Node Inflow Summary
  *******************
  
  -------------------------------------------------------------------------------------------------
                                  Maximum  Maximum                  Lateral       Total        Flow
                                  Lateral    Total  Time of Max      Inflow      Inflow     Balance
                                   Inflow   Inflow   Occurrence      Volume      Volume       Error
  Node                 Type           LPS      LPS  days hr:min    10^6 ltr    10^6 ltr     Percent
  -------------------------------------------------------------------------------------------------
  WS02003060           JUNCTION     16.53   556.25     0  03:01       0.476        6.24       0.036
  WS02003066           JUNCTION      0.00   539.62     0  03:01           0        5.76       0.024
  WS02003067           JUNCTION      0.00   539.58     0  03:01           0        5.77       0.073
  WS02003069           JUNCTION      0.32   556.56     0  03:02     0.00922        6.24       0.064
  WS02003072           JUNCTION      0.00   556.47     0  03:02           0        6.24       0.113
  WS02003073           JUNCTION      1.82   558.13     0  03:03      0.0524        6.29       0.091
  WS02004401           JUNCTION      0.00   541.69     0  02:28           0        5.86       0.173
  WS02004402           JUNCTION      0.00   541.67     0  03:00           0        5.85       0.176
  WS02004403           JUNCTION      0.00   541.80     0  03:01           0        5.84       0.170
  WS02004404           JUNCTION      0.16   561.49     0  02:53     0.00467        5.84       0.114
  WS02004405           JUNCTION      0.04   606.50     0  03:05      0.0011        5.83       0.130
  WS02004406           JUNCTION      0.00   547.85     0  02:58           0        5.82       0.354
  WS02004407           JUNCTION      0.00   541.43     0  02:59           0         5.8       0.020
  WS02004409           JUNCTION      0.00   540.56     0  02:59           0         5.8       0.046
  WS02004410           JUNCTION      0.00   540.10     0  02:59           0         5.8       0.075
  WS02004411           JUNCTION      0.00   540.05     0  03:00           0        5.79       0.096
  WS02004412           JUNCTION      0.00   539.85     0  03:00           0        5.79       0.129
  WS02004413           JUNCTION      0.00   539.77     0  03:00           0        5.78       0.229
  WS02006109           JUNCTION      1.23   567.94     0  03:28      0.0354        5.91       0.175
  WS02006110           JUNCTION      0.00   570.15     0  03:28           0         5.9       0.109
  WS02006111           JUNCTION      0.00   565.00     0  02:32           0        5.89       0.015
  WS02006112           JUNCTION      0.00   544.07     0  03:55           0        5.89       0.291
  WS02006113           JUNCTION      0.00   578.58     0  03:28           0        5.89       0.028
  WS02006115           JUNCTION      0.00   557.45     0  03:25           0        5.87       0.111
  WS02006116           JUNCTION      0.00   550.17     0  01:55           0        5.86       0.052
  WS02006228           JUNCTION      0.00   563.65     0  03:28           0        5.88       0.071
  WS02006229           JUNCTION      0.00   563.26     0  03:28           0        5.88       0.083
  WS02006230           JUNCTION     10.28   602.38     0  02:36       0.296        5.88       0.041
  WS02006231           JUNCTION      0.00   589.39     0  02:36           0        5.59      -0.036
  WS02006232           JUNCTION      0.00   584.93     0  02:36           0         5.6       0.199
  WS02006234           JUNCTION      0.00   578.83     0  02:36           0        5.59      -0.176
  WS02006235           JUNCTION      0.00   566.25     0  03:38           0        5.66       0.156
  WS02006238           JUNCTION      0.00   424.37     0  01:55           0        4.45      -0.066
  WS02006239           JUNCTION      0.00   421.97     0  02:05           0        4.41      -0.025
  WS02006240           JUNCTION      0.00   420.02     0  02:05           0        4.38      -0.038
  WS02006242           JUNCTION      0.00   420.04     0  02:05           0        4.35      -0.001
  WS02006243           JUNCTION      0.00   419.66     0  01:55           0        4.34       0.020
  WS02006245           JUNCTION      0.00   420.06     0  01:55           0        4.34       0.194
  WS02006247           JUNCTION      0.00   420.54     0  01:55           0        4.34       0.005
  WS02006248           JUNCTION      0.00   424.46     0  03:41           0        4.34       0.070
  WS02006249           JUNCTION      0.00   459.02     0  00:00           0        4.67       0.226
  WS02006251           JUNCTION      0.08   406.50     0  01:52     0.00222        4.67      -0.031
  WS02006252           JUNCTION      0.00   400.00     0  00:00           0        4.66      -0.028
  WS02006256           JUNCTION      0.00   300.00     0  00:00           0        1.84      -0.622
  WSF200               JUNCTION      0.00   539.65     0  03:01           0        5.76       0.008
  YS02001580           JUNCTION      0.00    54.04     0  01:59           0     0.00418      -0.774
  YS02001583           JUNCTION      0.00    88.47     0  01:58           0      0.0161      -2.374
  YS02001586           JUNCTION   1245.89  1245.89     0  02:26        2.67        2.68       0.029
  YS02001590           JUNCTION      0.00   325.59     0  02:27           0        1.72      -0.021
  YS02001593           JUNCTION      0.00   323.59     0  02:27           0        1.72       0.010
  YS02001596           JUNCTION      0.00   318.09     0  02:52           0        1.72      -0.015
  YS02001600           JUNCTION      0.00   318.43     0  02:27           0        1.72       0.013
  YS02001601           JUNCTION   2080.14  2397.53     0  02:25        3.61        5.33       0.020
  YS02001602           JUNCTION      0.00   493.69     0  01:59           0        2.77       0.018
  YS02001605           JUNCTION      0.00   493.13     0  01:59           0        2.58       0.028
  YS02001607           JUNCTION      0.00   492.58     0  01:59           0        2.58       0.078
  YS02001610           JUNCTION      0.00   954.66     0  02:27           0        3.22       0.076
  YS02001613           JUNCTION      0.00   618.73     0  02:27           0        2.45       0.066
  YS02001616           JUNCTION      0.00   619.25     0  02:27           0        2.45       0.015
  YS02001619           JUNCTION   2197.80  2197.80     0  02:26         4.3        6.11       0.000
  YS02001622           JUNCTION      0.00  1053.99     0  02:27           0        5.29      -0.001
  YS02001625           JUNCTION      0.00  1505.38     0  02:29           0        5.81       0.183
  YS02001629           JUNCTION      0.00   876.62     0  02:01           0        3.96      -0.004
  YS02001633           JUNCTION   1563.99  1563.99     0  02:25        2.65        5.96       0.058
  YS02001641           JUNCTION      0.00  1188.52     0  02:02           0        5.31       0.052
  YS02001644           JUNCTION   1393.14  2762.45     0  02:25        2.31        7.79       0.044
  YS02001647           JUNCTION      0.00  1479.03     0  02:03           0        6.21       0.004
  YS02001649           JUNCTION      0.00  1704.54     0  02:04           0        8.17       0.001
  YS02001652           JUNCTION      0.00  1363.97     0  02:25           0        2.13      -0.055
  YS02001655           JUNCTION      0.15  1363.87     0  02:25     0.00443        2.13       0.037
  YS02001658           JUNCTION      0.00  1363.73     0  02:25           0        2.13      -0.047
  YS02001661           JUNCTION      0.00  1363.70     0  02:25           0        2.13      -0.021
  YS02001664           JUNCTION   1363.16  1363.16     0  02:25        2.12        2.12      -0.006
  YS02001745           JUNCTION    840.75   840.75     0  02:25        1.27        1.27       0.080
  YS02001748           JUNCTION      0.04   841.58     0  02:25      0.0013        1.27      -0.152
  YS02001751           JUNCTION      0.01   841.31     0  02:25    0.000317        1.27       0.062
  YS02001754           JUNCTION      0.26   841.24     0  02:25     0.00749        1.28      -0.110
  YS02001757           JUNCTION      0.00  2838.39     0  02:15           0        12.9       0.014
  YS02001759           JUNCTION   1170.69  1284.54     0  02:23        1.76         3.6      -0.007
  YS02001762           JUNCTION      0.00   660.91     0  02:14           0        1.84       0.002
  YS02001765           JUNCTION      0.00   661.03     0  02:14           0        1.84       0.008
  YS02001767           JUNCTION      0.54   661.52     0  02:14      0.0154        1.84       0.013
  YS02001770           JUNCTION   1671.05  1671.05     0  02:25        2.67        2.71      -0.010
  YS02001774           JUNCTION      0.00   905.30     0  02:27           0       0.731       0.159
  YS02001779           JUNCTION      0.01   851.65     0  02:27    0.000144       0.686       0.014
  YS02001783           JUNCTION      0.00  1176.86     0  02:24           0        5.28       0.004
  YS02001784           JUNCTION      1.06  1177.59     0  02:24      0.0305        5.31       0.009
  YS02001786           JUNCTION      0.06  1178.58     0  02:24     0.00162        5.31       0.010
  YS02001788           JUNCTION      0.07  1178.87     0  02:24     0.00204        5.32       0.005
  YS02001790           JUNCTION      0.15  1181.63     0  02:25     0.00446        5.32       0.014
  YS02001791           JUNCTION      0.00  1297.86     0  02:26           0        5.32      -0.028
  YS02001793           JUNCTION      0.00  1257.67     0  02:20           0        5.32       0.003
  YS02001882           JUNCTION      0.00    28.17     0  02:04           0      0.0135       6.102
  YS02001884           JUNCTION      0.00    41.86     0  02:27           0      0.0501       5.379
  YS02001887           JUNCTION   1236.08  1236.12     0  02:25        1.82        1.86       0.244
  YS02001890           JUNCTION      0.00  1236.46     0  02:25           0        1.81       0.292
  YS02001895           JUNCTION      0.00   526.02     0  02:27           0        1.49       0.132
  YS02001898           JUNCTION      0.00   525.41     0  02:27           0        1.49       0.019
  YS02001901           JUNCTION      0.00   518.70     0  02:23           0        1.49       0.221
  YS02001904           JUNCTION      0.00   518.80     0  02:27           0         1.5       0.193
  YS02001907           JUNCTION      0.00  3046.47     0  02:25           0        5.56       0.330
  YS02001910           JUNCTION      0.00  1993.21     0  02:26           0        3.92       0.186
  YS02001915           JUNCTION   1502.29  2246.53     0  02:25        2.54        3.97       0.039
  YS02001918           JUNCTION      0.00   745.75     0  02:25           0        1.44       0.012
  YS02001920           JUNCTION      2.87   746.18     0  02:25      0.0827        1.43       0.068
  YS02001923           JUNCTION      0.04   741.75     0  02:25     0.00109        1.34       0.020
  YS02001926           JUNCTION      0.05   741.28     0  02:25      0.0015        1.34       0.018
  YS02001929           JUNCTION    739.63   739.63     0  02:25        1.34        1.34      -0.009
  YS02006553           JUNCTION      0.00   824.18     0  02:42           0        2.95       0.402
  YS02006556           JUNCTION      0.00   824.07     0  02:42           0        2.96       0.283
  YS02006558           JUNCTION   1708.69  1708.69     0  02:25        2.67        5.46       0.056
  YS02006561           JUNCTION      0.00  1175.67     0  02:24           0        5.28       0.001
  YS02163301           JUNCTION      0.00   874.83     0  02:02           0        3.96       0.039
  YS02163601           JUNCTION      0.11  1187.28     0  02:03     0.00317        5.31       0.094
  YS02164001           JUNCTION      0.00  1186.95     0  02:03           0        5.31       0.046
  CC-1                 OUTFALL       0.00   683.00     0  00:00           0        4.41       0.000
  CC-2                 OUTFALL       0.00   683.00     0  00:00           0         3.8       0.000
  JK-1                 OUTFALL       0.00  1000.00     0  00:00           0        3.15       0.000
  JK-2                 OUTFALL       0.00  1000.00     0  00:00           0       0.309       0.000
  WSC                  OUTFALL       0.00   557.91     0  03:04           0        6.28       0.000
  CC-storage           STORAGE       0.00  2839.14     0  02:15           0        15.1      -0.038
  JK-storage           STORAGE       0.00  1237.08     0  02:29           0        5.47       0.062
  
  
  **********************
  Node Surcharge Summary
  **********************
  
  Surcharging occurs when water rises above the top of the highest conduit.
  ---------------------------------------------------------------------
                                               Max. Height   Min. Depth
                                   Hours       Above Crown    Below Rim
  Node                 Type      Surcharged         Meters       Meters
  ---------------------------------------------------------------------
  WS02004404           JUNCTION        0.05          0.030        2.750
  WS02006109           JUNCTION        2.53          0.404        1.416
  WS02006110           JUNCTION        0.99          0.441        1.409
  WS02006112           JUNCTION        1.34          0.109        1.571
  WS02006228           JUNCTION        2.53          0.424        1.776
  WS02006229           JUNCTION        2.54          0.495        1.955
  WS02006230           JUNCTION        1.03          0.432        1.138
  WS02006231           JUNCTION        1.26          0.745        0.785
  WS02006232           JUNCTION        2.59          0.833        0.647
  WS02006234           JUNCTION        1.66          1.240        0.000
  WS02006235           JUNCTION        2.48          1.290        0.000
  WS02006238           JUNCTION        2.55          1.158        0.272
  WS02006239           JUNCTION        2.50          1.141        0.149
  WS02006240           JUNCTION        2.53          1.156        0.234
  WS02006242           JUNCTION        2.56          0.820        0.000
  WS02006243           JUNCTION        2.52          0.770        0.000
  WS02006245           JUNCTION        2.51          0.850        0.000
  WS02006247           JUNCTION        2.52          0.760        0.000
  WS02006248           JUNCTION        2.50          0.380        0.000
  WS02006249           JUNCTION        2.50          0.390        0.000
  WS02006251           JUNCTION        1.39          0.365        0.815
  WS02006252           JUNCTION        2.69          1.100        0.000
  WS02006256           JUNCTION        5.88          2.050        0.000
  YS02001580           JUNCTION        0.95          0.338        0.112
  YS02001583           JUNCTION        0.96          0.500        0.000
  YS02001586           JUNCTION        1.09          0.510        0.000
  YS02001590           JUNCTION        1.18          0.750        0.000
  YS02001593           JUNCTION        1.17          0.714        0.126
  YS02001596           JUNCTION        1.31          1.070        0.000
  YS02001600           JUNCTION        1.49          1.190        0.000
  YS02001601           JUNCTION        1.84          1.440        0.000
  YS02001602           JUNCTION        1.74          1.270        0.000
  YS02001605           JUNCTION        1.69          1.180        0.000
  YS02001607           JUNCTION        1.17          0.680        0.000
  YS02001610           JUNCTION        1.20          0.680        0.000
  YS02001613           JUNCTION        1.17          0.700        0.000
  YS02001616           JUNCTION        1.12          0.610        0.000
  YS02001619           JUNCTION        1.11          0.610        0.000
  YS02001622           JUNCTION        1.11          0.620        0.000
  YS02001625           JUNCTION        1.31          0.780        0.000
  YS02001629           JUNCTION        1.05          0.470        0.000
  YS02001633           JUNCTION        1.36          1.060        0.000
  YS02001641           JUNCTION        1.30          1.100        0.000
  YS02001644           JUNCTION        1.26          0.920        0.000
  YS02001647           JUNCTION        1.07          0.900        0.000
  YS02001649           JUNCTION        1.19          1.050        0.000
  YS02001652           JUNCTION        1.02          0.969        0.161
  YS02001655           JUNCTION        0.89          0.779        0.421
  YS02001658           JUNCTION        0.52          0.611        0.689
  YS02001661           JUNCTION        0.18          0.340        1.050
  YS02001745           JUNCTION        0.03          0.062        1.288
  YS02001748           JUNCTION        0.42          0.381        0.809
  YS02001751           JUNCTION        0.75          0.666        0.534
  YS02001754           JUNCTION        0.97          1.020        0.130
  YS02001757           JUNCTION        1.28          1.210        0.000
  YS02001759           JUNCTION        1.19          1.210        0.000
  YS02001762           JUNCTION        1.16          1.150        0.000
  YS02001765           JUNCTION        1.12          1.100        0.000
  YS02001767           JUNCTION        1.09          1.030        0.000
  YS02001770           JUNCTION        1.06          0.920        0.000
  YS02001774           JUNCTION        1.14          1.050        0.000
  YS02001779           JUNCTION        0.95          0.680        0.000
  YS02001783           JUNCTION        0.80          1.600        0.000
  YS02001784           JUNCTION        0.77          1.490        0.000
  YS02001786           JUNCTION        0.63          0.117        1.313
  YS02001882           JUNCTION        0.73          0.830        0.000
  YS02001884           JUNCTION        0.74          0.870        0.000
  YS02001887           JUNCTION        0.78          0.950        0.000
  YS02001890           JUNCTION        0.80          0.760        0.000
  YS02001895           JUNCTION        0.71          0.750        0.000
  YS02001898           JUNCTION        0.70          0.740        0.000
  YS02001901           JUNCTION        0.77          0.839        0.031
  YS02001904           JUNCTION        0.76          0.731        0.119
  YS02001907           JUNCTION        1.14          0.950        0.000
  YS02001910           JUNCTION        0.84          1.100        0.000
  YS02001915           JUNCTION        0.72          1.000        0.000
  YS02001918           JUNCTION        0.62          0.810        0.000
  YS02001920           JUNCTION        0.63          0.861        0.279
  YS02001923           JUNCTION        0.24          0.820        0.000
  YS02001926           JUNCTION        0.28          0.506        0.394
  YS02001929           JUNCTION        0.13          0.279        0.501
  YS02006553           JUNCTION        1.16          1.190        0.000
  YS02006556           JUNCTION        0.97          1.105        0.245
  YS02006558           JUNCTION        0.95          1.400        0.000
  YS02006561           JUNCTION        0.56          0.292        0.858
  YS02163301           JUNCTION        1.32          1.030        0.000
  YS02163601           JUNCTION        1.41          1.080        0.000
  YS02164001           JUNCTION        1.29          1.100        0.000
  
  
  *********************
  Node Flooding Summary
  *********************
  
  Flooding refers to all water that overflows a node, whether it ponds or not.
  --------------------------------------------------------------------------
                                                             Total   Maximum
                                 Maximum   Time of Max       Flood    Ponded
                        Hours       Rate    Occurrence      Volume     Depth
  Node                 Flooded       LPS   days hr:min    10^6 ltr    Meters
  --------------------------------------------------------------------------
  WS02006234              0.01      0.07      0  02:27       0.000     0.000
  WS02006235              0.01      0.33      0  02:27       0.000     0.000
  WS02006242              0.01     14.11      0  02:45       0.000     0.000
  WS02006243              0.01      1.73      0  03:38       0.000     0.000
  WS02006245              0.01      2.89      0  03:38       0.000     0.000
  WS02006247              0.01      3.75      0  03:38       0.000     0.000
  WS02006248              0.03     27.65      0  02:45       0.001     0.000
  WS02006249              1.34    106.44      0  01:52       0.316     0.000
  WS02006252              0.01    245.63      0  00:00       0.000     0.000
  WS02006256              1.70    293.19      0  00:00       0.590     0.000
  YS02001583              0.01      0.30      0  02:27       0.000     0.000
  YS02001586              0.76    928.22      0  02:26       0.952     0.000
  YS02001590              0.01      0.22      0  02:36       0.000     0.000
  YS02001596              0.01      0.14      0  02:27       0.000     0.000
  YS02001600              0.01      2.42      0  02:27       0.000     0.000
  YS02001601              1.03   1999.32      0  02:25       2.555     0.000
  YS02001602              0.94     64.43      0  02:13       0.197     0.000
  YS02001605              0.01      1.51      0  02:13       0.000     0.000
  YS02001607              0.01      4.64      0  02:13       0.000     0.000
  YS02001610              0.85    954.34      0  02:27       1.408     0.000
  YS02001613              0.01      0.80      0  02:13       0.000     0.000
  YS02001616              0.06     17.80      0  02:32       0.000     0.000
  YS02001619              0.17    530.01      0  02:26       0.169     0.000
  YS02001622              0.01      0.57      0  02:27       0.000     0.000
  YS02001625              0.84   1505.19      0  02:31       2.487     0.000
  YS02001629              0.24    383.50      0  02:25       0.137     0.000
  YS02001633              0.01     17.47      0  02:27       0.000     0.000
  YS02001641              0.01      0.85      0  02:13       0.000     0.000
  YS02001644              0.43   2762.22      0  02:25       1.744     0.000
  YS02001647              0.01      0.55      0  02:13       0.000     0.000
  YS02001649              0.01     49.36      0  02:27       0.000     0.000
  YS02001757              0.01     21.10      0  02:27       0.000     0.000
  YS02001759              0.01      1.33      0  02:13       0.000     0.000
  YS02001762              0.01     66.51      0  02:27       0.000     0.000
  YS02001765              0.01     33.83      0  02:27       0.000     0.000
  YS02001767              0.01     16.23      0  02:27       0.000     0.000
  YS02001770              0.13    749.21      0  02:25       0.175     0.000
  YS02001774              0.01     55.58      0  02:27       0.000     0.000
  YS02001779              0.37    851.40      0  02:27       0.668     0.000
  YS02001783              0.01     26.21      0  02:27       0.000     0.000
  YS02001784              0.01     77.64      0  02:27       0.000     0.000
  YS02001882              0.01      1.41      0  02:32       0.000     0.000
  YS02001884              0.01      1.05      0  02:32       0.000     0.000
  YS02001887              0.01      0.27      0  02:13       0.000     0.000
  YS02001890              0.31    719.81      0  02:25       0.315     0.000
  YS02001895              0.01      0.32      0  02:27       0.000     0.000
  YS02001898              0.01      1.53      0  02:32       0.000     0.000
  YS02001907              0.56   3046.19      0  02:25       2.746     0.000
  YS02001910              0.01      0.10      0  02:27       0.000     0.000
  YS02001915              0.08    254.00      0  02:25       0.040     0.000
  YS02001918              0.01      0.19      0  02:27       0.000     0.000
  YS02001923              0.01      0.74      0  02:27       0.000     0.000
  YS02006553              0.01      0.61      0  02:27       0.000     0.000
  YS02006558              0.01     41.94      0  02:27       0.000     0.000
  YS02163301              0.01      0.76      0  02:13       0.000     0.000
  YS02163601              0.01     80.91      0  02:27       0.001     0.000
  YS02164001              0.01     65.84      0  02:27       0.000     0.000
  
  
  **********************
  Storage Volume Summary
  **********************
  
  ------------------------------------------------------------------------------------------------
                         Average    Avg   Evap  Exfil     Maximum    Max    Time of Max    Maximum
                          Volume   Pcnt   Pcnt   Pcnt      Volume   Pcnt     Occurrence    Outflow
  Storage Unit           1000 m³   Full   Loss   Loss     1000 m³   Full    days hr:min        LPS
  ------------------------------------------------------------------------------------------------
  CC-storage               2.982   46.5    0.0    0.0       5.632   87.9       0  02:47    1783.53
  JK-storage               0.156   53.4    0.0    0.0       0.213   73.1       0  02:20    2300.00
  
  
  ***********************
  Outfall Loading Summary
  ***********************
  
  -----------------------------------------------------------
                         Flow       Avg       Max       Total
                         Freq      Flow      Flow      Volume
  Outfall Node           Pcnt       LPS       LPS    10^6 ltr
  -----------------------------------------------------------
  CC-1                  24.77    683.00    683.00       4.407
  CC-2                  21.46    683.00    683.00       3.803
  JK-1                  12.72   1000.00   1000.00       3.150
  JK-2                   1.19   1000.00   1000.00       0.309
  WSC                   99.96    286.02    557.91       6.280
  -----------------------------------------------------------
  System                32.02   3652.02   3916.28      17.949
  
  
  ********************
  Link Flow Summary
  ********************
  
  -----------------------------------------------------------------------------
                                 Maximum  Time of Max   Maximum    Max/    Max/
                                  |Flow|   Occurrence   |Veloc|    Full    Full
  Link                 Type          LPS  days hr:min     m/sec    Flow   Depth
  -----------------------------------------------------------------------------
  1                    CONDUIT    557.91     0  03:04      2.83    0.19    0.30
  WS02003060WS02003069 CONDUIT    556.24     0  03:02      1.64    0.22    0.34
  WS02003066WSF200     CONDUIT    539.65     0  03:01      2.86    0.09    0.22
  WS02003067WS02003066 CONDUIT    539.62     0  03:01      1.21    0.17    0.42
  WS02003069WS02003072 CONDUIT    556.47     0  03:02      1.37    0.27    0.39
  WS02003072WS02003073 CONDUIT    556.31     0  03:03      1.44    1.20    0.37
  WS02004401WS02004402 CONDUIT    541.67     0  03:00      0.98    0.65    0.89
  WS02004402WS02004403 CONDUIT    541.80     0  03:01      0.97    0.78    0.91
  WS02004403WS02004404 CONDUIT    561.33     0  02:53      0.92    0.41    0.96
  WS02004404WS02004405 CONDUIT    606.46     0  03:05      1.08    5.94    0.98
  WS02004405WS02004406 CONDUIT    547.85     0  02:58      0.99    1.08    0.96
  WS02004406WS02004407 CONDUIT    541.43     0  02:59      1.04    0.24    0.63
  WS02004407WS02004409 CONDUIT    540.56     0  02:59      1.55    0.19    0.48
  WS02004409WS02004410 CONDUIT    540.10     0  02:59      0.99    0.70    0.68
  WS02004410WS02004411 CONDUIT    540.05     0  03:00      0.94    0.74    0.69
  WS02004411WS02004412 CONDUIT    539.85     0  03:00      0.93    0.77    0.70
  WS02004412WS02004413 CONDUIT    539.77     0  03:00      0.82    0.36    0.78
  WS02004413WS02003067 CONDUIT    539.58     0  03:01      1.11    0.23    0.59
  WS02006109WS02006110 CONDUIT    570.15     0  03:28      1.14    1.10    1.00
  WS02006110WS02006113 CONDUIT    578.58     0  03:28      1.39    0.53    0.79
  WS02006111WS02006112 CONDUIT    544.07     0  03:55      1.81    0.26    0.67
  WS02006112WS02006115 CONDUIT    557.45     0  03:25      0.84    0.33    0.88
  WS02006113WS02006111 CONDUIT    565.00     0  02:32      2.47    0.68    0.46
  WS02006115WS02006116 CONDUIT    550.17     0  01:55      1.06    0.71    0.79
  WS02006116WS02004401 CONDUIT    541.69     0  02:28      0.98    0.75    0.87
  WS02006228WS02006109 CONDUIT    566.71     0  03:28      1.13    2.48    1.00
  WS02006229WS02006228 CONDUIT    563.65     0  03:28      1.14    1.87    1.00
  WS02006230WS02006229 CONDUIT    563.26     0  03:28      1.46   12.53    1.00
  WS02006231WS02006230 CONDUIT    592.10     0  02:36      1.59    8.98    1.00
  WS02006232WS02006231 CONDUIT    589.39     0  02:36      1.53    1.24    1.00
  WS02006234WS02006232 CONDUIT    584.93     0  02:36      1.52    1.18    1.00
  WS02006235WS02006234 CONDUIT    578.83     0  02:36      1.50    6.11    1.00
  WS02006238WS02006235 CONDUIT    424.40     0  01:55      1.46    0.95    1.00
  WS02006239WS02006238 CONDUIT    424.37     0  01:55      1.10    1.36    1.00
  WS02006240WS02006239 CONDUIT    421.97     0  02:05      1.24    1.33    1.00
  WS02006242WS02006240 CONDUIT    420.02     0  02:05      1.13    1.67    1.00
  WS02006243WS02006242 CONDUIT    420.04     0  02:05      1.40    0.90    1.00
  WS02006245WS02006243 CONDUIT    419.66     0  01:55      1.45    1.24    1.00
  WS02006247WS02006245 CONDUIT    420.06     0  01:55      1.43    3.33    1.00
  WS02006248WS02006247 CONDUIT    420.54     0  01:55      1.44    0.92    1.00
  WS02006249WS02006248 CONDUIT    424.46     0  03:41      1.36    2.33    1.00
  WS02006251WS02006249 CONDUIT    459.02     0  00:00      1.99    1.32    1.00
  WS02006252WS02006251 CONDUIT    406.42     0  01:52     24.61    1.49    1.00
  WS02006256WS02006235 CONDUIT    288.91     0  00:00      4.23    3.06    1.00
  WSF200WS02003060     CONDUIT    539.72     0  03:01      2.07    0.12    0.28
  YS02001580YS02001583 CONDUIT     54.04     0  01:59      0.44    0.21    1.00
  YS02001583YS02001586 CONDUIT     88.47     0  01:58      0.37    0.13    1.00
  YS02001586YS02001590 CONDUIT    325.59     0  02:27      1.23    0.57    1.00
  YS02001590YS02001593 CONDUIT    323.59     0  02:27      1.14    2.03    1.00
  YS02001593YS02001596 CONDUIT    318.09     0  02:52      1.72    0.50    1.00
  YS02001596YS02001600 CONDUIT    318.43     0  02:27      1.28    0.62    1.00
  YS02001600YS02001601 CONDUIT    318.77     0  02:27      1.13    0.55    1.00
  YS02001601YS02001602 CONDUIT    493.69     0  01:59      1.75    1.78    1.00
  YS02001602YS02001605 CONDUIT    493.13     0  01:59      1.74   10.44    1.00
  YS02001605YS02001607 CONDUIT    492.58     0  01:59      1.74    2.70    1.00
  YS02001607YS02001610 CONDUIT    491.05     0  01:58      0.63    0.47    1.00
  YS02001610YS02001613 CONDUIT    618.59     0  02:27      0.79    0.71    1.00
  YS02001613YS02001616 CONDUIT    618.73     0  02:27      0.79    0.53    1.00
  YS02001616YS02001619 CONDUIT    619.25     0  02:27      0.79    1.08    1.00
  YS02001619YS02001622 CONDUIT   1053.99     0  02:27      1.34    1.55    1.00
  YS02001622YS02001625 CONDUIT   1053.69     0  02:25      1.34    0.56    1.00
  YS02001625YS02001629 CONDUIT    876.62     0  02:01      1.12    0.42    1.00
  YS02001629YS02163301 CONDUIT    874.83     0  02:02      1.11    1.08    1.00
  YS02001633YS02163601 CONDUIT   1187.17     0  02:03      1.51    1.25    1.00
  YS02001641YS02001644 CONDUIT   1190.66     0  02:02      1.52    3.85    1.00
  YS02001644YS02001647 CONDUIT   1479.03     0  02:03      1.95    0.87    1.00
  YS02001647YS02001649 CONDUIT   1487.48     0  02:02      2.08    0.79    1.00
  YS02001649YS02001757 CONDUIT   1703.41     0  02:04      2.24    1.03    1.00
  YS02001652YS02001649 CONDUIT   1363.97     0  02:25      1.74    0.68    1.00
  YS02001655YS02001652 CONDUIT   1363.97     0  02:25      1.74    0.66    1.00
  YS02001658YS02001655 CONDUIT   1363.71     0  02:25      1.74    0.58    1.00
  YS02001661YS02001658 CONDUIT   1363.73     0  02:25      2.03    0.54    1.00
  YS02001664YS02001661 CONDUIT   1363.70     0  02:25      1.91    0.43    0.99
  YS02001745YS02001748 CONDUIT    841.53     0  02:25      1.87    0.32    1.00
  YS02001748YS02001751 CONDUIT    841.30     0  02:25      1.49    0.42    1.00
  YS02001751YS02001754 CONDUIT    840.98     0  02:25      1.36    0.41    1.00
  YS02001754YS02001757 CONDUIT    841.63     0  02:25      1.07    0.34    1.00
  YS02001757CaochengTiaoxuchi CONDUIT   2839.14     0  02:15      3.61    1.23    1.00
  YS02001759YS02001757 CONDUIT   1284.17     0  02:23      1.64    0.91    1.00
  YS02001762YS02001759 CONDUIT    660.43     0  02:14      0.84    0.76    1.00
  YS02001765YS02001762 CONDUIT    660.91     0  02:14      0.84    0.62    1.00
  YS02001767YS02001765 CONDUIT    661.03     0  02:14      0.84    0.83    1.00
  YS02001770YS02001767 CONDUIT    660.98     0  02:14      0.84    2.62    1.00
  YS02001774YS02001770 CONDUIT    905.30     0  02:27      1.15    0.58    1.00
  YS02001779YS02001774 CONDUIT    851.65     0  02:27      1.08    0.43    1.00
  YS02001783YS02001784 CONDUIT   1176.53     0  02:24      2.34    1.62    1.00
  YS02001784YS02001785 CONDUIT   1178.52     0  02:24      2.34    2.74    1.00
  YS02001786YS02001788 CONDUIT   1178.80     0  02:24      2.50    2.27    0.89
  YS02001788YS02001790 CONDUIT   1181.48     0  02:25      2.72    0.87    0.84
  YS02001790YS02001791 CONDUIT   1297.86     0  02:26      3.45    1.41    0.70
  YS02001791YS02001793 CONDUIT   1257.67     0  02:20      6.46    0.54    0.45
  YS02001793JiankangQianchi CONDUIT   1237.08     0  02:29      2.42    0.10    0.65
  YS02001882YS02001884 CONDUIT     28.17     0  02:04      0.17    0.03    1.00
  YS02001884YS02001887 CONDUIT     41.86     0  02:27      0.12    0.06    1.00
  YS02001887YS02001890 CONDUIT   1236.46     0  02:25      1.57    2.12    1.00
  YS02001890YS02001895 CONDUIT    526.02     0  02:27      0.67    0.25    1.00
  YS02001895YS02001898 CONDUIT    525.41     0  02:27      0.67    0.91    1.00
  YS02001898YS02001901 CONDUIT    518.70     0  02:23      0.66    0.33    1.00
  YS02001901YS02001904 CONDUIT    518.80     0  02:27      0.66    0.80    1.00
  YS02001904YS02001907 CONDUIT    521.05     0  02:27      0.66    0.18    1.00
  YS02001907YS02006553 CONDUIT    824.18     0  02:42      0.92    0.97    1.00
  YS02001910YS02001907 CONDUIT   1993.02     0  02:25      2.54    1.12    1.00
  YS02001915YS02001910 CONDUIT   1993.21     0  02:26      2.54    0.99    1.00
  YS02001918YS02001915 CONDUIT    746.33     0  02:25      0.95    0.41    1.00
  YS02001920YS02001918 CONDUIT    745.75     0  02:25      0.95    0.72    1.00
  YS02001923YS02001920 CONDUIT    743.31     0  02:25      0.95    0.33    1.00
  YS02001926YS02001923 CONDUIT    741.71     0  02:25      0.94    1.06    1.00
  YS02001929YS02001926 CONDUIT    741.22     0  02:25      1.05    0.35    1.00
  YS02006553YS02006556 CONDUIT    824.07     0  02:42      1.05    0.70    1.00
  YS02006556YS02006558 CONDUIT    822.02     0  02:42      1.05    0.65    1.00
  YS02006558YS02006561 CONDUIT   1175.67     0  02:24      4.16    2.60    1.00
  YS02006561YS02001783 CONDUIT   1176.86     0  02:24      2.34    0.61    1.00
  YS02163301YS02001633 CONDUIT    874.68     0  02:01      1.11    0.82    1.00
  YS02163601YS02164001 CONDUIT   1186.95     0  02:03      1.51    1.05    1.00
  YS02164001YS02001641 CONDUIT   1188.52     0  02:02      1.51    1.62    1.00
  CC-R1                PUMP       683.00     0  00:00              1.00
  CC-R2                PUMP       683.00     0  00:00              1.00
  CC-S1                PUMP       200.00     0  00:00              1.00
  CC-S2                PUMP       200.00     0  00:00              1.00
  JK-R1                PUMP      1000.00     0  00:00              1.00
  JK-R2                PUMP      1000.00     0  00:00              1.00
  JK-S                 PUMP       300.00     0  00:00              1.00
  
  
  ***************************
  Flow Classification Summary
  ***************************
  
  -------------------------------------------------------------------------------------
                      Adjusted    ---------- Fraction of Time in Flow Class ---------- 
                       /Actual         Up    Down  Sub   Sup   Up    Down  Norm  Inlet 
  Conduit               Length    Dry  Dry   Dry   Crit  Crit  Crit  Crit  Ltd   Ctrl  
  -------------------------------------------------------------------------------------
  1                       1.00   0.00  0.00  0.00  0.00  1.00  0.00  0.00  0.41  0.00
  WS02003060WS02003069    1.00   0.00  0.00  0.00  0.98  0.02  0.00  0.00  0.63  0.00
  WS02003066WSF200        1.00   0.13  0.00  0.00  0.00  0.87  0.00  0.00  0.72  0.00
  WS02003067WS02003066    1.00   0.10  0.02  0.00  0.88  0.00  0.00  0.00  0.00  0.00
  WS02003069WS02003072    1.00   0.00  0.00  0.00  0.99  0.01  0.00  0.00  0.66  0.00
  WS02003072WS02003073    1.00   0.00  0.00  0.00  0.00  0.00  0.00  1.00  0.00  0.00
  WS02004401WS02004402    1.00   0.02  0.00  0.00  0.98  0.00  0.00  0.00  0.00  0.00
  WS02004402WS02004403    1.00   0.02  0.00  0.00  0.97  0.00  0.00  0.00  0.00  0.00
  WS02004403WS02004404    1.00   0.00  0.03  0.00  0.97  0.00  0.00  0.00  0.00  0.00
  WS02004404WS02004405    1.00   0.00  0.00  0.00  1.00  0.00  0.00  0.00  0.01  0.00
  WS02004405WS02004406    1.00   0.00  0.00  0.00  1.00  0.00  0.00  0.00  0.00  0.00
  WS02004406WS02004407    1.00   0.00  0.05  0.00  0.95  0.00  0.00  0.00  0.00  0.00
  WS02004407WS02004409    1.00   0.05  0.00  0.00  0.94  0.01  0.00  0.00  0.94  0.00
  WS02004409WS02004410    1.00   0.05  0.00  0.00  0.95  0.00  0.00  0.00  0.03  0.00
  WS02004410WS02004411    1.00   0.05  0.00  0.00  0.95  0.00  0.00  0.00  0.01  0.00
  WS02004411WS02004412    1.00   0.05  0.00  0.00  0.95  0.00  0.00  0.00  0.00  0.00
  WS02004412WS02004413    1.00   0.05  0.00  0.00  0.94  0.00  0.00  0.00  0.01  0.00
  WS02004413WS02003067    1.00   0.06  0.04  0.00  0.00  0.00  0.90  0.00  0.00  0.00
  WS02006109WS02006110    1.00   0.00  0.01  0.00  0.98  0.00  0.01  0.00  0.00  0.00
  WS02006110WS02006113    1.00   0.01  0.01  0.00  0.98  0.00  0.00  0.00  0.00  0.00
  WS02006111WS02006112    1.00   0.02  0.00  0.00  0.98  0.00  0.00  0.00  0.98  0.00
  WS02006112WS02006115    1.00   0.02  0.00  0.00  0.97  0.00  0.00  0.00  0.00  0.00
  WS02006113WS02006111    1.00   0.02  0.00  0.00  0.00  0.98  0.00  0.00  0.14  0.00
  WS02006115WS02006116    1.00   0.02  0.00  0.00  0.97  0.00  0.00  0.01  0.00  0.00
  WS02006116WS02004401    1.00   0.02  0.00  0.00  0.98  0.00  0.00  0.00  0.00  0.00
  WS02006228WS02006109    1.00   0.00  0.00  0.00  1.00  0.00  0.00  0.00  0.00  0.00
  WS02006229WS02006228    1.00   0.00  0.00  0.00  0.99  0.00  0.00  0.01  0.00  0.00
  WS02006230WS02006229    1.00   0.00  0.00  0.00  0.99  0.00  0.00  0.01  0.00  0.00
  WS02006231WS02006230    1.00   0.00  0.00  0.00  0.34  0.00  0.66  0.00  0.00  0.00
  WS02006232WS02006231    1.00   0.00  0.00  0.00  0.99  0.00  0.01  0.00  0.00  0.00
  WS02006234WS02006232    1.00   0.00  0.00  0.00  1.00  0.00  0.00  0.00  0.10  0.00
  WS02006235WS02006234    1.00   0.00  0.00  0.00  0.84  0.00  0.15  0.00  0.00  0.00
  WS02006238WS02006235    1.00   0.00  0.00  0.00  1.00  0.00  0.00  0.00  0.00  0.00
  WS02006239WS02006238    1.00   0.00  0.00  0.00  1.00  0.00  0.00  0.00  0.27  0.00
  WS02006240WS02006239    1.00   0.00  0.00  0.00  0.64  0.00  0.00  0.35  0.02  0.00
  WS02006242WS02006240    1.00   0.00  0.00  0.00  0.99  0.00  0.01  0.00  0.00  0.00
  WS02006243WS02006242    1.00   0.00  0.00  0.00  0.99  0.00  0.00  0.01  0.49  0.00
  WS02006245WS02006243    1.00   0.00  0.00  0.00  0.75  0.00  0.00  0.25  0.01  0.00
  WS02006247WS02006245    1.00   0.00  0.00  0.00  0.99  0.00  0.00  0.01  0.00  0.00
  WS02006248WS02006247    1.00   0.00  0.00  0.00  0.99  0.00  0.00  0.01  0.27  0.00
  WS02006249WS02006248    1.00   0.00  0.00  0.00  0.51  0.00  0.49  0.00  0.00  0.00
  WS02006251WS02006249    1.00   0.00  0.00  0.00  1.00  0.00  0.00  0.00  0.50  0.00
  WS02006252WS02006251    1.00   0.00  0.52  0.00  0.17  0.00  0.30  0.00  0.00  0.00
  WS02006256WS02006235    1.00   0.00  0.00  0.00  1.00  0.00  0.00  0.00  0.00  0.00
  WSF200WS02003060        1.00   0.00  0.13  0.00  0.27  0.61  0.00  0.00  0.44  0.00
  YS02001580YS02001583    1.00   0.24  0.52  0.00  0.24  0.00  0.00  0.00  0.61  0.00
  YS02001583YS02001586    1.00   0.39  0.31  0.00  0.29  0.00  0.00  0.00  0.61  0.00
  YS02001586YS02001590    1.00   0.13  0.00  0.00  0.48  0.04  0.00  0.36  0.36  0.00
  YS02001590YS02001593    1.00   0.13  0.01  0.00  0.16  0.00  0.70  0.00  0.00  0.00
  YS02001593YS02001596    1.00   0.13  0.00  0.00  0.19  0.01  0.00  0.67  0.02  0.00
  YS02001596YS02001600    1.00   0.13  0.00  0.00  0.25  0.01  0.00  0.61  0.04  0.00
  YS02001600YS02001601    1.00   0.13  0.01  0.00  0.86  0.00  0.00  0.00  0.56  0.00
  YS02001601YS02001602    1.00   0.13  0.01  0.00  0.87  0.00  0.00  0.00  0.00  0.00
  YS02001602YS02001605    1.00   0.13  0.00  0.00  0.87  0.00  0.00  0.00  0.00  0.00
  YS02001605YS02001607    1.00   0.13  0.00  0.00  0.87  0.00  0.00  0.00  0.00  0.00
  YS02001607YS02001610    1.00   0.13  0.00  0.00  0.86  0.00  0.00  0.00  0.01  0.00
  YS02001610YS02001613    1.00   0.13  0.00  0.00  0.87  0.00  0.00  0.00  0.00  0.00
  YS02001613YS02001616    1.00   0.13  0.00  0.00  0.87  0.00  0.00  0.00  0.00  0.00
  YS02001616YS02001619    1.00   0.13  0.00  0.00  0.87  0.00  0.00  0.00  0.00  0.00
  YS02001619YS02001622    1.00   0.13  0.00  0.00  0.87  0.00  0.00  0.00  0.26  0.00
  YS02001622YS02001625    1.00   0.13  0.00  0.00  0.87  0.00  0.00  0.00  0.03  0.00
  YS02001625YS02001629    1.00   0.13  0.04  0.00  0.23  0.00  0.61  0.00  0.00  0.00
  YS02001629YS02163301    1.00   0.14  0.01  0.00  0.85  0.00  0.00  0.00  0.00  0.00
  YS02001633YS02163601    1.00   0.00  0.01  0.00  0.99  0.00  0.00  0.00  0.14  0.00
  YS02001641YS02001644    1.00   0.00  0.01  0.00  0.99  0.00  0.00  0.00  0.00  0.00
  YS02001644YS02001647    1.00   0.00  0.16  0.00  0.84  0.00  0.00  0.00  0.00  0.00
  YS02001647YS02001649    1.00   0.00  0.16  0.00  0.62  0.22  0.00  0.00  0.57  0.00
  YS02001649YS02001757    1.00   0.00  0.00  0.00  0.86  0.14  0.00  0.00  0.41  0.00
  YS02001652YS02001649    1.00   0.00  0.00  0.00  0.97  0.03  0.00  0.00  0.66  0.00
  YS02001655YS02001652    1.00   0.00  0.00  0.00  0.27  0.02  0.00  0.72  0.07  0.00
  YS02001658YS02001655    1.00   0.00  0.14  0.00  0.71  0.15  0.00  0.00  0.63  0.00
  YS02001661YS02001658    1.00   0.14  0.00  0.00  0.55  0.31  0.00  0.00  0.64  0.00
  YS02001664YS02001661    1.00   0.13  0.00  0.00  0.79  0.09  0.00  0.00  0.82  0.00
  YS02001745YS02001748    1.00   0.00  0.00  0.00  0.16  0.00  0.00  0.84  0.04  0.00
  YS02001748YS02001751    1.00   0.00  0.00  0.00  0.86  0.14  0.00  0.00  0.70  0.00
  YS02001751YS02001754    1.00   0.00  0.00  0.00  0.23  0.02  0.00  0.75  0.04  0.00
  YS02001754YS02001757    1.00   0.00  0.00  0.00  1.00  0.00  0.00  0.00  0.73  0.00
  YS02001757CaochengTiaoxuchi    1.00   0.00  0.00  0.00  1.00  0.00  0.00  0.00  0.50  0.00
  YS02001759YS02001757    1.00   0.00  0.00  0.00  0.98  0.02  0.00  0.00  0.47  0.00
  YS02001762YS02001759    1.00   0.00  0.00  0.00  1.00  0.00  0.00  0.00  0.05  0.00
  YS02001765YS02001762    1.00   0.00  0.00  0.00  1.00  0.00  0.00  0.00  0.59  0.00
  YS02001767YS02001765    1.00   0.00  0.00  0.00  1.00  0.00  0.00  0.00  0.01  0.00
  YS02001770YS02001767    1.00   0.00  0.00  0.00  1.00  0.00  0.00  0.00  0.00  0.00
  YS02001774YS02001770    1.00   0.00  0.13  0.00  0.71  0.00  0.15  0.00  0.02  0.00
  YS02001779YS02001774    1.00   0.00  0.00  0.00  1.00  0.00  0.00  0.00  0.70  0.00
  YS02001783YS02001784    1.00   0.00  0.16  0.00  0.84  0.00  0.00  0.00  0.54  0.00
  YS02001784YS02001785    1.00   0.00  0.00  0.00  1.00  0.00  0.00  0.00  0.15  0.00
  YS02001786YS02001788    1.00   0.00  0.00  0.00  0.79  0.21  0.00  0.00  0.00  0.00
  YS02001788YS02001790    1.00   0.00  0.00  0.00  0.22  0.78  0.00  0.00  0.77  0.00
  YS02001790YS02001791    1.00   0.00  0.00  0.00  0.01  0.99  0.00  0.00  0.16  0.00
  YS02001791YS02001793    1.00   0.00  0.00  0.00  0.00  1.00  0.00  0.00  0.02  0.00
  YS02001793JiankangQianchi    1.00   0.00  0.00  0.00  0.99  0.01  0.00  0.00  0.91  0.00
  YS02001882YS02001884    1.00   0.14  0.01  0.00  0.85  0.00  0.00  0.00  0.00  0.00
  YS02001884YS02001887    1.00   0.06  0.05  0.00  0.89  0.00  0.00  0.00  0.00  0.00
  YS02001887YS02001890    1.00   0.00  0.00  0.00  0.97  0.00  0.03  0.00  0.00  0.00
  YS02001890YS02001895    1.00   0.00  0.15  0.00  0.85  0.00  0.00  0.00  0.00  0.00
  YS02001895YS02001898    1.00   0.15  0.00  0.00  0.83  0.00  0.01  0.00  0.00  0.00
  YS02001898YS02001901    1.00   0.15  0.00  0.00  0.85  0.00  0.00  0.00  0.01  0.00
  YS02001901YS02001904    1.00   0.15  0.00  0.00  0.85  0.00  0.00  0.00  0.00  0.00
  YS02001904YS02001907    1.00   0.00  0.15  0.00  0.85  0.00  0.00  0.00  0.00  0.00
  YS02001907YS02006553    1.00   0.00  0.02  0.00  0.98  0.00  0.00  0.00  0.00  0.00
  YS02001910YS02001907    1.00   0.00  0.00  0.00  0.97  0.00  0.00  0.03  0.11  0.00
  YS02001915YS02001910    1.00   0.00  0.00  0.00  0.97  0.03  0.00  0.00  0.13  0.00
  YS02001918YS02001915    1.00   0.00  0.01  0.00  0.98  0.02  0.00  0.00  0.70  0.00
  YS02001920YS02001918    1.00   0.00  0.01  0.00  0.99  0.00  0.00  0.00  0.00  0.00
  YS02001923YS02001920    1.00   0.00  0.00  0.00  1.00  0.00  0.00  0.00  0.89  0.00
  YS02001926YS02001923    1.00   0.00  0.07  0.00  0.09  0.00  0.83  0.00  0.00  0.00
  YS02001929YS02001926    1.00   0.00  0.13  0.00  0.87  0.00  0.00  0.00  0.79  0.00
  YS02006553YS02006556    1.00   0.01  0.00  0.00  0.99  0.00  0.00  0.00  0.03  0.00
  YS02006556YS02006558    1.00   0.00  0.00  0.00  1.00  0.00  0.00  0.00  0.00  0.00
  YS02006558YS02006561    1.00   0.16  0.00  0.00  0.08  0.75  0.00  0.00  0.17  0.00
  YS02006561YS02001783    1.00   0.16  0.00  0.00  0.13  0.70  0.00  0.00  0.65  0.00
  YS02163301YS02001633    1.00   0.00  0.14  0.00  0.86  0.00  0.00  0.00  0.00  0.00
  YS02163601YS02164001    1.00   0.00  0.08  0.00  0.92  0.00  0.00  0.00  0.00  0.00
  YS02164001YS02001641    1.00   0.01  0.07  0.00  0.92  0.00  0.00  0.00  0.05  0.00
  
  
  *************************
  Conduit Surcharge Summary
  *************************
  
  ----------------------------------------------------------------------------
                                                           Hours        Hours 
                         --------- Hours Full --------   Above Full   Capacity
  Conduit                Both Ends  Upstream  Dnstream   Normal Flow   Limited
  ----------------------------------------------------------------------------
  WS02003072WS02003073        0.01      0.01      0.01      1.70         0.01
  WS02004403WS02004404        0.01      0.01      0.03      0.01         0.01
  WS02004404WS02004405        0.01      0.03      0.01      3.77         0.01
  WS02004405WS02004406        0.01      0.01      0.01      1.09         0.01
  WS02006109WS02006110        0.99      0.99      2.59      1.21         0.01
  WS02006110WS02006113        0.01      0.01      2.57      0.01         0.01
  WS02006111WS02006112        0.01      0.01      2.94      0.01         0.01
  WS02006112WS02006115        0.01      0.01      1.34      0.01         0.01
  WS02006228WS02006109        2.53      2.59      2.53      3.03         2.53
  WS02006229WS02006228        2.53      2.54      2.53      2.78         2.51
  WS02006230WS02006229        2.66      2.76      2.66      4.39         2.66
  WS02006231WS02006230        1.02      1.02      1.35      4.04         0.01
  WS02006232WS02006231        1.26      1.26      2.59      1.37         0.01
  WS02006234WS02006232        2.45      2.45      2.59      1.34         1.31
  WS02006235WS02006234        1.64      1.66      2.47      3.96         0.03
  WS02006238WS02006235        2.50      2.50      2.60      0.01         0.02
  WS02006239WS02006238        2.54      2.57      2.55      2.58         2.21
  WS02006240WS02006239        2.50      2.54      2.50      2.57         2.04
  WS02006242WS02006240        2.53      2.53      2.58      2.75         0.01
  WS02006243WS02006242        2.53      2.53      2.56      0.01         0.08
  WS02006245WS02006243        2.52      2.52      2.52      1.48         1.56
  WS02006247WS02006245        2.51      2.52      2.51      3.74         2.49
  WS02006248WS02006247        2.50      2.50      2.52      0.01         0.09
  WS02006249WS02006248        2.49      2.50      2.50      3.70         0.01
  WS02006251WS02006249        2.49      2.49      2.50      2.63         2.39
  WS02006252WS02006251        2.68      2.68      2.69      2.68         0.01
  WS02006256WS02006235        3.93      3.98      5.84      1.70         0.01
  YS02001580YS02001583        0.95      0.95      1.02      0.01         0.01
  YS02001583YS02001586        0.96      0.96      1.09      0.01         0.01
  YS02001586YS02001590        1.10      1.10      1.18      0.01         0.01
  YS02001590YS02001593        1.17      1.17      1.20      1.16         0.01
  YS02001593YS02001596        1.18      1.18      1.31      0.01         0.01
  YS02001596YS02001600        1.37      1.37      1.49      0.01         0.01
  YS02001600YS02001601        1.55      1.55      1.84      0.01         0.01
  YS02001601YS02001602        1.74      1.74      1.88      1.48         0.01
  YS02001602YS02001605        1.69      1.69      1.74      2.62         0.01
  YS02001605YS02001607        1.64      1.69      1.65      1.76         1.60
  YS02001607YS02001610        1.17      1.17      1.20      0.01         0.01
  YS02001610YS02001613        1.17      1.17      1.20      0.01         0.01
  YS02001613YS02001616        1.12      1.12      1.17      0.01         0.01
  YS02001616YS02001619        1.11      1.11      1.12      0.16         0.14
  YS02001619YS02001622        1.11      1.11      1.11      1.14         1.00
  YS02001622YS02001625        1.11      1.11      1.31      0.01         0.01
  YS02001625YS02001629        1.05      1.05      1.31      0.01         0.01
  YS02001629YS02163301        1.31      1.31      1.33      0.12         0.10
  YS02001633YS02163601        1.36      1.36      1.41      0.18         0.21
  YS02001641YS02001644        1.26      1.30      1.26      1.93         1.22
  YS02001644YS02001647        1.07      1.07      1.26      0.01         0.01
  YS02001647YS02001649        1.07      1.07      1.19      0.01         0.01
  YS02001649YS02001757        1.19      1.19      1.28      0.02         0.04
  YS02001652YS02001649        1.04      1.04      1.19      0.01         0.01
  YS02001655YS02001652        0.89      0.89      1.02      0.01         0.01
  YS02001658YS02001655        0.52      0.52      0.89      0.01         0.01
  YS02001661YS02001658        0.18      0.18      0.52      0.01         0.01
  YS02001664YS02001661        0.01      0.01      0.25      0.01         0.01
  YS02001745YS02001748        0.03      0.03      0.42      0.01         0.01
  YS02001748YS02001751        0.48      0.48      0.75      0.01         0.01
  YS02001751YS02001754        0.75      0.75      0.97      0.01         0.01
  YS02001754YS02001757        1.00      1.00      1.28      0.01         0.01
  YS02001757CaochengTiaoxuchi        1.28      1.28      2.46      0.52         0.52
  YS02001759YS02001757        1.19      1.19      1.28      0.01         0.01
  YS02001762YS02001759        1.16      1.16      1.19      0.01         0.01
  YS02001765YS02001762        1.12      1.12      1.16      0.01         0.01
  YS02001767YS02001765        1.09      1.09      1.12      0.01         0.01
  YS02001770YS02001767        1.09      1.09      1.09      0.65         0.63
  YS02001774YS02001770        1.06      1.06      1.14      0.01         0.01
  YS02001779YS02001774        0.95      0.95      1.14      0.01         0.01
  YS02001783YS02001784        0.77      0.80      0.77      1.02         0.77
  YS02001784YS02001785        0.63      0.77      0.63      1.34         0.63
  YS02001786YS02001788        0.01      0.63      0.01      1.20         0.01
  YS02001790YS02001791        0.01      0.01      0.01      0.75         0.01
  YS02001793JiankangQianchi        0.01      0.01      7.70      0.01         0.01
  YS02001882YS02001884        0.73      0.73      0.74      0.01         0.01
  YS02001884YS02001887        0.77      0.77      0.78      0.01         0.01
  YS02001887YS02001890        0.80      0.80      0.82      0.23         0.01
  YS02001890YS02001895        0.71      0.71      0.84      0.01         0.01
  YS02001895YS02001898        0.70      0.70      0.71      0.01         0.01
  YS02001898YS02001901        0.72      0.72      0.77      0.01         0.01
  YS02001901YS02001904        0.76      0.76      0.77      0.01         0.01
  YS02001904YS02001907        0.76      0.76      1.16      0.01         0.01
  YS02001907YS02006553        1.36      1.36      1.42      0.01         0.01
  YS02001910YS02001907        0.84      0.84      1.14      0.11         0.11
  YS02001915YS02001910        0.72      0.72      0.84      0.01         0.01
  YS02001918YS02001915        0.62      0.62      0.72      0.01         0.01
  YS02001920YS02001918        0.62      0.62      0.63      0.01         0.01
  YS02001923YS02001920        0.57      0.57      0.63      0.01         0.01
  YS02001926YS02001923        0.24      0.24      0.28      0.05         0.01
  YS02001929YS02001926        0.13      0.13      0.28      0.01         0.01
  YS02006553YS02006556        0.97      0.97      1.16      0.01         0.01
  YS02006556YS02006558        1.07      1.07      1.19      0.01         0.01
  YS02006558YS02006561        0.66      0.95      0.66      1.29         0.66
  YS02006561YS02001783        0.56      0.56      0.80      0.01         0.01
  YS02163301YS02001633        1.33      1.33      1.38      0.01         0.01
  YS02163601YS02164001        1.29      1.29      1.41      0.09         0.01
  YS02164001YS02001641        1.29      1.29      1.30      0.70         0.65
  
  
  ***************
  Pumping Summary
  ***************
  
  ---------------------------------------------------------------------------------------------------------
                                                  Min       Avg       Max     Total     Power    % Time Off
                        Percent   Number of      Flow      Flow      Flow    Volume     Usage    Pump Curve
  Pump                 Utilized   Start-Ups       LPS       LPS       LPS  10^6 ltr     Kw-hr    Low   High
  ---------------------------------------------------------------------------------------------------------
  CC-R1                   22.40           2      0.00    683.00    683.00     4.406     85.83    0.0   19.3
  CC-R2                   19.33           2      0.00    683.00    683.00     3.803     74.71    0.0   22.4
  CC-S1                   47.49           4      0.00    200.00    200.00     2.735     14.86    0.0    6.9
  CC-S2                   33.51           3      0.00    200.00    200.00     1.930     10.02    0.0    9.8
  JK-R1                   10.93          17      0.00   1000.00   1000.00     3.149     37.14    0.0    0.0
  JK-R2                    1.07           3      0.00   1000.00   1000.00     0.307      2.39    0.0    0.0
  JK-S                    21.27          22      0.00    300.00    300.00     1.838     26.50    0.0    0.0
  

  Analysis begun on:  Tue Apr 15 14:17:34 2025
  Analysis ended on:  Tue Apr 15 14:17:36 2025
  Total elapsed time: 00:00:02