
  EPA STORM WATER MANAGEMENT MODEL - VERSION 5.2 (Build 5.2.4)
  PYSWMM TOOLKIT API - VERSION v1.0 (2023-11-27)
  ------------------------------------------------------------

  WARNING 04: minimum elevation drop used for Conduit WS02004404WS02004405
  WARNING 03: negative offset ignored for Link YS02001904YS02001907
  
  ****************
  Analysis Options
  ****************
  Flow Units ............... LPS
  Process Models:
    Rainfall/Runoff ........ YES
    RDII ................... NO
    Snowmelt ............... NO
    Groundwater ............ NO
    Flow Routing ........... YES
    Ponding Allowed ........ NO
    Water Quality .......... NO
  Infiltration Method ...... HORTON
  Flow Routing Method ...... DYNWAVE
  Surcharge Method ......... EXTRAN
  Starting Date ............ 08/28/2015 08:00:00
  Ending Date .............. 08/28/2015 16:00:00
  Antecedent Dry Days ...... 8.0
  Report Time Step ......... 00:01:00
  Wet Time Step ............ 00:01:00
  Dry Time Step ............ 00:01:00
  Routing Time Step ........ 30.00 sec
  Variable Time Step ....... YES
  Maximum Trials ........... 8
  Number of Threads ........ 4
  Head Tolerance ........... 0.001500 m
  
  
  **************************        Volume         Depth
  Runoff Quantity Continuity     hectare-m            mm
  **************************     ---------       -------
  Total Precipitation ......         1.505        45.382
  Evaporation Loss .........         0.000         0.000
  Infiltration Loss ........         0.092         2.788
  Surface Runoff ...........         1.380        41.615
  Final Storage ............         0.033         0.992
  Continuity Error (%) .....        -0.030
  
  
  **************************        Volume        Volume
  Flow Routing Continuity        hectare-m      10^6 ltr
  **************************     ---------     ---------
  Dry Weather Inflow .......         0.025         0.251
  Wet Weather Inflow .......         1.379        13.794
  Groundwater Inflow .......         0.000         0.000
  RDII Inflow ..............         0.000         0.000
  External Inflow ..........         0.083         0.834
  External Outflow .........         1.202        12.023
  Flooding Loss ............         0.259         2.594
  Evaporation Loss .........         0.000         0.000
  Exfiltration Loss ........         0.000         0.000
  Initial Stored Volume ....         0.243         2.431
  Final Stored Volume ......         0.275         2.746
  Continuity Error (%) .....        -0.312
  
  
  *************************
  Highest Continuity Errors
  *************************
  Node YS02001583 (-18.14%)
  Node YS02001884 (4.90%)
  Node YS02001774 (1.40%)
  
  
  ***************************
  Time-Step Critical Elements
  ***************************
  Link WS02006252WS02006251 (45.67%)
  Link WS02004404WS02004405 (16.23%)
  Link WS02006238WS02006235 (11.55%)
  Link WS02003066WSF200 (6.94%)
  Link YS02001791YS02001793 (5.04%)
  
  
  ********************************
  Highest Flow Instability Indexes
  ********************************
  Link WS02006113WS02006111 (44)
  Link WS02006111WS02006112 (21)
  Link WS02006252WS02006251 (15)
  Link WS02006238WS02006235 (12)
  Link WS02006256WS02006235 (10)
  
  
  *********************************
  Most Frequent Nonconverging Nodes
  *********************************
  Node CC-1 (14.28%)
  Node CC-2 (14.28%)
  Node JK-1 (14.28%)
  Node JK-2 (14.28%)
  Node WSC (14.28%)
  
  
  *************************
  Routing Time Step Summary
  *************************
  Minimum Time Step           :     0.01 sec
  Average Time Step           :     2.08 sec
  Maximum Time Step           :     6.43 sec
  % of Time in Steady State   :     0.00
  Average Iterations per Step :     3.12
  % of Steps Not Converging   :    14.28
  Time Step Frequencies       :
     30.000 - 13.228 sec      :     0.00 %
     13.228 -  5.833 sec      :     9.01 %
      5.833 -  2.572 sec      :    23.07 %
      2.572 -  1.134 sec      :    16.61 %
      1.134 -  0.500 sec      :    51.31 %
  
  
  ***************************
  Subcatchment Runoff Summary
  ***************************
  
  ------------------------------------------------------------------------------------------------------------------------------
                            Total      Total      Total      Total     Imperv       Perv      Total       Total     Peak  Runoff
                           Precip      Runon       Evap      Infil     Runoff     Runoff     Runoff      Runoff   Runoff   Coeff
  Subcatchment                 mm         mm         mm         mm         mm         mm         mm    10^6 ltr      LPS
  ------------------------------------------------------------------------------------------------------------------------------
  sub60                     45.38       0.00       0.00       1.72      38.73       3.73      42.46        0.56   363.55   0.936
  sub61                     45.38       0.00       0.00       2.48      36.54       5.24      41.77        0.77   497.94   0.920
  sub62                     45.38       0.00       0.00       1.15      40.47       2.49      42.95        1.18   694.96   0.946
  sub63                     45.38       0.00       0.00       4.53      31.25       8.64      39.89        0.91   531.64   0.879
  sub64                     45.38       0.00       0.00       2.30      37.37       4.51      41.88        1.01   544.40   0.923
  sub65                     45.38       0.00       0.00       1.99      38.23       3.91      42.15        1.16   603.16   0.929
  sub66                     45.38       0.00       0.00       5.51      31.15       7.65      38.80        1.81   744.04   0.855
  sub67                     45.38       0.00       0.00       1.11      40.51       2.52      43.03        0.80   566.97   0.948
  sub68                     45.38       0.00       0.00       2.05      37.84       4.30      42.15        1.16   711.18   0.929
  sub69                     45.38       0.00       0.00       1.78      38.47       5.03      43.50        1.61   821.73   0.958
  sub70                     45.38       0.00       0.00       5.81      29.79       9.62      39.41        1.14   424.01   0.868
  sub71                     45.38       0.00       0.00       1.17      40.43       2.46      42.89        1.12   592.47   0.945
  sub72                     45.38       0.00       0.00       1.04      40.81       2.14      42.95        0.59   278.07   0.946
  
  
  ******************
  Node Depth Summary
  ******************
  
  ---------------------------------------------------------------------------------
                                 Average  Maximum  Maximum  Time of Max    Reported
                                   Depth    Depth      HGL   Occurrence   Max Depth
  Node                 Type       Meters   Meters   Meters  days hr:min      Meters
  ---------------------------------------------------------------------------------
  WS02003060           JUNCTION     0.24     0.38     5.31     0  02:43        0.38
  WS02003066           JUNCTION     0.20     0.30     5.85     0  02:43        0.30
  WS02003067           JUNCTION     0.51     0.70     6.02     0  02:43        0.70
  WS02003069           JUNCTION     0.26     0.43     5.01     0  02:44        0.43
  WS02003072           JUNCTION     0.33     0.50     4.87     0  02:44        0.50
  WS02003073           JUNCTION     0.19     0.30     4.36     0  02:45        0.30
  WS02004401           JUNCTION     0.58     0.85     6.85     0  02:40        0.85
  WS02004402           JUNCTION     0.62     0.87     6.83     0  02:41        0.87
  WS02004403           JUNCTION     0.64     0.89     6.82     0  02:40        0.89
  WS02004404           JUNCTION     0.72     0.96     6.81     0  02:40        0.96
  WS02004405           JUNCTION     0.71     0.95     6.80     0  02:41        0.95
  WS02004406           JUNCTION     0.73     0.96     6.79     0  02:38        0.95
  WS02004407           JUNCTION     0.18     0.29     6.61     0  02:41        0.29
  WS02004409           JUNCTION     0.39     0.66     6.43     0  02:42        0.66
  WS02004410           JUNCTION     0.42     0.68     6.40     0  02:42        0.68
  WS02004411           JUNCTION     0.44     0.69     6.37     0  02:42        0.69
  WS02004412           JUNCTION     0.46     0.70     6.34     0  02:42        0.69
  WS02004413           JUNCTION     0.62     0.85     6.32     0  02:43        0.85
  WS02006109           JUNCTION     0.64     1.26     7.88     0  02:13        1.22
  WS02006110           JUNCTION     0.65     1.32     7.90     0  02:13        1.31
  WS02006111           JUNCTION     0.17     0.29     7.00     0  02:49        0.29
  WS02006112           JUNCTION     0.74     1.08     6.97     0  02:47        1.08
  WS02006113           JUNCTION     0.27     0.46     7.35     0  02:49        0.46
  WS02006115           JUNCTION     0.47     0.75     6.89     0  02:40        0.75
  WS02006116           JUNCTION     0.55     0.83     6.87     0  02:40        0.83
  WS02006228           JUNCTION     0.63     1.21     7.86     0  02:18        1.19
  WS02006229           JUNCTION     0.61     1.25     7.95     0  02:18        1.24
  WS02006230           JUNCTION     0.60     1.48     8.23     0  02:18        1.30
  WS02006231           JUNCTION     0.41     1.22     8.34     0  01:50        1.14
  WS02006232           JUNCTION     0.55     1.55     8.59     0  03:10        1.55
  WS02006234           JUNCTION     0.47     1.96     9.12     0  03:10        1.96
  WS02006235           JUNCTION     0.50     2.00     9.16     0  03:10        2.00
  WS02006238           JUNCTION     0.53     1.96     9.10     0  03:10        1.96
  WS02006239           JUNCTION     0.50     1.68     8.89     0  02:18        1.48
  WS02006240           JUNCTION     0.46     1.59     8.88     0  02:18        1.51
  WS02006242           JUNCTION     0.53     1.55     8.82     0  02:18        1.55
  WS02006243           JUNCTION     0.44     1.48     8.90     0  03:14        1.48
  WS02006245           JUNCTION     0.44     1.46     8.94     0  03:14        1.46
  WS02006247           JUNCTION     0.47     1.47     8.97     0  03:10        1.47
  WS02006248           JUNCTION     0.43     1.10     8.69     0  01:49        1.10
  WS02006249           JUNCTION     0.46     1.09     8.69     0  01:48        1.09
  WS02006251           JUNCTION     0.46     1.36     9.03     0  01:48        1.31
  WS02006252           JUNCTION     0.34     1.50     9.74     0  00:00        0.86
  WS02006256           JUNCTION     0.98     2.35     9.28     0  00:00        2.35
  WSF200               JUNCTION     0.17     0.29     5.52     0  02:43        0.29
  YS02001580           JUNCTION     0.07     1.05     9.59     0  01:37        0.77
  YS02001583           JUNCTION     0.11     1.14     9.64     0  01:37        0.82
  YS02001586           JUNCTION     0.16     1.13     9.30     0  01:36        1.13
  YS02001590           JUNCTION     0.24     1.40     9.26     0  01:36        1.40
  YS02001593           JUNCTION     0.18     1.46     9.32     0  01:36        1.29
  YS02001596           JUNCTION     0.24     1.80     9.22     0  01:36        1.66
  YS02001600           JUNCTION     0.29     1.87     9.00     0  01:36        1.86
  YS02001601           JUNCTION     0.47     2.06     8.90     0  01:36        2.06
  YS02001602           JUNCTION     0.39     1.87     8.77     0  01:37        1.87
  YS02001605           JUNCTION     0.37     1.78     8.68     0  01:37        1.78
  YS02001607           JUNCTION     0.37     1.68     8.53     0  01:37        1.68
  YS02001610           JUNCTION     0.42     1.68     8.48     0  01:37        1.68
  YS02001613           JUNCTION     0.38     1.70     8.54     0  01:37        1.66
  YS02001616           JUNCTION     0.31     1.61     8.52     0  01:37        1.61
  YS02001619           JUNCTION     0.28     1.61     8.54     0  01:37        1.60
  YS02001622           JUNCTION     0.27     1.59     8.49     0  01:37        1.57
  YS02001625           JUNCTION     0.54     1.78     8.38     0  01:37        1.78
  YS02001629           JUNCTION     0.38     1.85     8.40     0  01:37        1.85
  YS02001633           JUNCTION     0.46     2.08     8.53     0  01:38        2.08
  YS02001641           JUNCTION     0.45     2.10     8.54     0  01:50        2.10
  YS02001644           JUNCTION     0.45     1.92     8.35     0  01:39        1.92
  YS02001647           JUNCTION     0.24     1.82     8.43     0  01:41        1.82
  YS02001649           JUNCTION     0.27     1.99     8.38     0  01:40        1.96
  YS02001652           JUNCTION     0.18     2.13     8.72     0  01:40        1.83
  YS02001655           JUNCTION     0.13     2.20     9.05     0  01:40        1.67
  YS02001658           JUNCTION     0.09     2.30     9.44     0  01:40        1.10
  YS02001661           JUNCTION     0.12     0.86     8.26     0  01:41        0.85
  YS02001664           JUNCTION     0.04     0.28     8.20     0  01:40        0.28
  YS02001745           JUNCTION     0.04     0.57     8.09     0  01:40        0.57
  YS02001748           JUNCTION     0.08     1.04     8.12     0  01:41        0.99
  YS02001751           JUNCTION     0.11     1.80     8.68     0  01:43        1.18
  YS02001754           JUNCTION     0.15     1.84     8.45     0  01:43        1.45
  YS02001757           JUNCTION     0.31     1.92     8.18     0  01:41        1.87
  YS02001759           JUNCTION     0.25     1.86     8.22     0  01:41        1.81
  YS02001762           JUNCTION     0.24     1.83     8.23     0  01:41        1.73
  YS02001765           JUNCTION     0.22     1.80     8.25     0  01:41        1.67
  YS02001767           JUNCTION     0.21     1.81     8.30     0  01:39        1.63
  YS02001770           JUNCTION     0.22     1.95     8.44     0  01:39        1.67
  YS02001774           JUNCTION     0.29     2.02     8.44     0  01:39        1.77
  YS02001779           JUNCTION     0.14     1.68     8.37     0  01:39        1.52
  YS02001783           JUNCTION     0.20     1.36     7.50     0  01:39        1.36
  YS02001784           JUNCTION     0.22     1.23     7.30     0  01:39        1.23
  YS02001786           JUNCTION     0.19     0.94     6.97     0  01:38        0.94
  YS02001788           JUNCTION     0.13     0.62     6.59     0  01:40        0.62
  YS02001790           JUNCTION     0.16     0.72     6.36     0  01:47        0.71
  YS02001791           JUNCTION     0.10     0.43     5.90     0  01:44        0.43
  YS02001793           JUNCTION     0.05     0.28     5.12     0  01:40        0.28
  YS02001882           JUNCTION     0.26     1.83     8.55     0  01:38        1.83
  YS02001884           JUNCTION     0.36     1.93     8.55     0  01:38        1.93
  YS02001887           JUNCTION     0.43     2.00     8.54     0  01:38        2.00
  YS02001890           JUNCTION     0.46     1.81     8.32     0  01:38        1.81
  YS02001895           JUNCTION     0.23     1.75     8.50     0  01:38        1.75
  YS02001898           JUNCTION     0.24     1.77     8.51     0  01:38        1.77
  YS02001901           JUNCTION     0.36     1.87     8.48     0  01:38        1.87
  YS02001904           JUNCTION     0.34     1.85     8.48     0  01:38        1.63
  YS02001907           JUNCTION     0.66     1.96     8.25     0  01:38        1.96
  YS02001910           JUNCTION     0.46     1.97     8.47     0  01:38        1.83
  YS02001915           JUNCTION     0.26     1.90     8.62     0  01:39        1.70
  YS02001918           JUNCTION     0.14     1.81     8.88     0  01:38        1.40
  YS02001920           JUNCTION     0.21     2.14     9.15     0  01:39        1.48
  YS02001923           JUNCTION     0.10     2.03     9.29     0  01:39        1.25
  YS02001926           JUNCTION     0.14     1.90     9.35     0  01:39        1.08
  YS02001929           JUNCTION     0.07     1.78     9.47     0  01:39        0.87
  YS02006553           JUNCTION     0.66     2.01     8.30     0  01:39        2.01
  YS02006556           JUNCTION     0.63     2.04     8.35     0  01:39        2.04
  YS02006558           JUNCTION     0.68     2.09     8.36     0  01:39        2.09
  YS02006561           JUNCTION     0.13     1.05     7.71     0  01:38        1.03
  YS02163301           JUNCTION     0.41     2.03     8.55     0  01:50        2.03
  YS02163601           JUNCTION     0.50     2.08     8.48     0  01:38        2.08
  YS02164001           JUNCTION     0.44     2.10     8.56     0  01:50        2.10
  CC-1                 OUTFALL      0.00     0.00     0.00     0  00:00        0.00
  CC-2                 OUTFALL      0.00     0.00     0.00     0  00:00        0.00
  JK-1                 OUTFALL      0.00     0.00     0.00     0  00:00        0.00
  JK-2                 OUTFALL      0.00     0.00     0.00     0  00:00        0.00
  WSC                  OUTFALL      0.19     0.30     0.97     0  02:45        0.30
  CC-storage           STORAGE      0.94     1.48     6.98     0  02:06        1.48
  JK-storage           STORAGE      3.21     4.24     5.04     0  01:45        4.20
  
  
  *******************
  Node Inflow Summary
  *******************
  
  -------------------------------------------------------------------------------------------------
                                  Maximum  Maximum                  Lateral       Total        Flow
                                  Lateral    Total  Time of Max      Inflow      Inflow     Balance
                                   Inflow   Inflow   Occurrence      Volume      Volume       Error
  Node                 Type           LPS      LPS  days hr:min    10^6 ltr    10^6 ltr     Percent
  -------------------------------------------------------------------------------------------------
  WS02003060           JUNCTION     16.53   548.95     0  02:43       0.476        5.38       0.035
  WS02003066           JUNCTION      0.00   532.04     0  02:43           0         4.9       0.027
  WS02003067           JUNCTION      0.00   531.95     0  02:43           0        4.91       0.081
  WS02003069           JUNCTION      0.32   549.13     0  02:44     0.00922        5.39       0.066
  WS02003072           JUNCTION      0.00   548.68     0  02:44           0        5.38       0.121
  WS02003073           JUNCTION      1.82   550.10     0  02:44      0.0524        5.43       0.092
  WS02004401           JUNCTION      0.00   541.46     0  02:37           0           5       0.198
  WS02004402           JUNCTION      0.00   538.44     0  02:37           0        4.99       0.201
  WS02004403           JUNCTION      0.00   537.31     0  02:37           0        4.98       0.197
  WS02004404           JUNCTION      0.16   536.69     0  02:37     0.00467        4.98       0.171
  WS02004405           JUNCTION      0.04   536.62     0  02:38      0.0011        4.97       0.238
  WS02004406           JUNCTION      0.00   535.88     0  02:38           0        4.96       0.410
  WS02004407           JUNCTION      0.00   534.97     0  02:41           0        4.94       0.017
  WS02004409           JUNCTION      0.00   534.88     0  02:41           0        4.94       0.045
  WS02004410           JUNCTION      0.00   533.74     0  02:42           0        4.94       0.080
  WS02004411           JUNCTION      0.00   533.33     0  02:42           0        4.93       0.104
  WS02004412           JUNCTION      0.00   532.68     0  02:42           0        4.93       0.142
  WS02004413           JUNCTION      0.00   532.11     0  02:42           0        4.92       0.260
  WS02006109           JUNCTION      1.23   563.34     0  03:19      0.0354        5.05       0.184
  WS02006110           JUNCTION      0.00   565.77     0  03:19           0        5.04       0.128
  WS02006111           JUNCTION      0.00   568.97     0  02:49           0        5.03       0.010
  WS02006112           JUNCTION      0.00   545.91     0  02:49           0        5.03       0.388
  WS02006113           JUNCTION      0.00   569.88     0  03:19           0        5.03       0.038
  WS02006115           JUNCTION      0.00   555.47     0  01:57           0        5.01       0.124
  WS02006116           JUNCTION      0.00   542.33     0  02:37           0           5       0.014
  WS02006228           JUNCTION      0.00   557.26     0  03:19           0        5.02       0.055
  WS02006229           JUNCTION      0.00   556.86     0  03:19           0        5.02       0.101
  WS02006230           JUNCTION     10.28   594.51     0  02:01       0.296        5.02       0.050
  WS02006231           JUNCTION      0.00   595.25     0  03:14           0        4.72      -0.064
  WS02006232           JUNCTION      0.00   593.46     0  03:14           0        4.73       0.202
  WS02006234           JUNCTION      0.00   584.66     0  03:14           0        4.72      -0.202
  WS02006235           JUNCTION      0.00   567.81     0  03:14           0        4.79       0.116
  WS02006238           JUNCTION      0.00   426.35     0  02:10           0        3.84      -0.178
  WS02006239           JUNCTION      0.00   424.18     0  02:10           0        3.81      -0.106
  WS02006240           JUNCTION      0.00   420.58     0  02:20           0        3.77      -0.086
  WS02006242           JUNCTION      0.00   420.97     0  02:10           0        3.74      -0.040
  WS02006243           JUNCTION      0.00   421.51     0  02:10           0        3.73      -0.035
  WS02006245           JUNCTION      0.00   422.38     0  02:10           0        3.74       0.345
  WS02006247           JUNCTION      0.00   423.09     0  02:10           0        3.74       0.039
  WS02006248           JUNCTION      0.00   423.54     0  02:11           0        3.74       0.067
  WS02006249           JUNCTION      0.00   459.02     0  00:00           0        3.97       0.321
  WS02006251           JUNCTION      0.08   406.06     0  01:48     0.00222        3.97      -0.039
  WS02006252           JUNCTION      0.00   400.00     0  00:00           0        3.97      -0.014
  WS02006256           JUNCTION      0.00   300.00     0  00:00           0        1.43      -0.919
  WSF200               JUNCTION      0.00   532.08     0  02:43           0         4.9       0.006
  YS02001580           JUNCTION      0.00   258.02     0  01:37           0     0.00454      -4.772
  YS02001583           JUNCTION      0.00   280.54     0  01:37           0      0.0141     -15.356
  YS02001586           JUNCTION    424.01   424.08     0  01:43        1.14        1.15       0.161
  YS02001590           JUNCTION      0.00   318.32     0  01:49           0        1.06      -0.064
  YS02001593           JUNCTION      0.00   317.97     0  01:53           0        1.06       0.031
  YS02001596           JUNCTION      0.00   317.86     0  01:44           0        1.06       0.005
  YS02001600           JUNCTION      0.00   318.13     0  01:49           0        1.06      -0.001
  YS02001601           JUNCTION    821.73  1139.29     0  01:41        1.61        2.67       0.034
  YS02001602           JUNCTION      0.00   594.91     0  01:37           0        1.92       0.026
  YS02001605           JUNCTION      0.00   594.69     0  01:37           0        1.84       0.023
  YS02001607           JUNCTION      0.00   594.60     0  01:37           0        1.84       0.067
  YS02001610           JUNCTION      0.00   564.34     0  01:37           0        1.84       0.132
  YS02001613           JUNCTION      0.00   531.58     0  01:37           0        1.62       0.079
  YS02001616           JUNCTION      0.00   486.45     0  01:37           0        1.62       0.016
  YS02001619           JUNCTION    744.04   927.81     0  01:37        1.81        3.43      -0.017
  YS02001622           JUNCTION      0.00   848.87     0  01:37           0        3.43      -0.005
  YS02001625           JUNCTION      0.00   834.45     0  01:40           0        3.43       0.260
  YS02001629           JUNCTION      0.00   828.55     0  02:02           0        3.07       0.013
  YS02001633           JUNCTION    603.36  1344.00     0  01:38        1.17        4.23       0.078
  YS02001641           JUNCTION      0.00  1339.72     0  01:38           0        4.24       0.066
  YS02001644           JUNCTION    544.44  1847.99     0  01:38        1.01        5.24       0.059
  YS02001647           JUNCTION      0.00  1849.29     0  01:38           0        5.22       0.007
  YS02001649           JUNCTION      0.00  2172.59     0  01:39           0        6.13       0.009
  YS02001652           JUNCTION      0.00   625.44     0  01:42           0       0.909      -0.275
  YS02001655           JUNCTION      0.15   766.03     0  01:39     0.00443       0.909      -0.028
  YS02001658           JUNCTION      0.00   665.42     0  01:40           0       0.904      -0.057
  YS02001661           JUNCTION      0.00   533.11     0  01:40           0       0.905       0.059
  YS02001664           JUNCTION    531.64   531.64     0  01:40       0.905       0.905      -0.016
  YS02001745           JUNCTION    363.56   363.56     0  01:39       0.557       0.557       0.291
  YS02001748           JUNCTION      0.04   620.00     0  01:40      0.0013       0.561      -0.403
  YS02001751           JUNCTION      0.01   537.19     0  01:43    0.000317       0.569       0.216
  YS02001754           JUNCTION      0.26   440.99     0  01:41     0.00749       0.577      -0.469
  YS02001757           JUNCTION      0.00  3320.69     0  01:42           0        8.67       0.070
  YS02001759           JUNCTION    497.98  1251.46     0  01:40       0.767        1.96      -0.007
  YS02001762           JUNCTION      0.00   751.44     0  01:40           0        1.19       0.021
  YS02001765           JUNCTION      0.00   747.09     0  01:40           0        1.19       0.006
  YS02001767           JUNCTION      0.54   742.19     0  01:40      0.0154        1.19       0.020
  YS02001770           JUNCTION    695.11   721.16     0  01:40        1.18        1.22      -0.014
  YS02001774           JUNCTION      0.00   355.27     0  01:39           0       0.066       1.422
  YS02001779           JUNCTION      0.01   317.61     0  01:39    0.000144      0.0224      -3.791
  YS02001783           JUNCTION      0.00  1153.41     0  01:39           0        3.29       0.008
  YS02001784           JUNCTION      1.06  1155.27     0  01:39      0.0305        3.32       0.016
  YS02001786           JUNCTION      0.06  1155.11     0  01:39     0.00162        3.33       0.020
  YS02001788           JUNCTION      0.07  1160.51     0  01:39     0.00204        3.33       0.009
  YS02001790           JUNCTION      0.15  1164.60     0  01:40     0.00446        3.33       0.020
  YS02001791           JUNCTION      0.00  1271.10     0  01:47           0        3.33      -0.014
  YS02001793           JUNCTION      0.00  1234.20     0  01:47           0        3.33       0.008
  YS02001882           JUNCTION      0.00    77.82     0  01:37           0       0.013       3.906
  YS02001884           JUNCTION      0.00   126.50     0  01:37           0      0.0488       5.150
  YS02001887           JUNCTION    567.42   583.19     0  01:38       0.812       0.846       0.511
  YS02001890           JUNCTION      0.00   590.62     0  01:38           0       0.805       0.625
  YS02001895           JUNCTION      0.00   597.57     0  01:38           0       0.795       0.171
  YS02001898           JUNCTION      0.00   603.33     0  01:38           0       0.793      -0.020
  YS02001901           JUNCTION      0.00   610.73     0  01:38           0       0.797       0.405
  YS02001904           JUNCTION      0.00   613.29     0  01:38           0        0.81       0.281
  YS02001907           JUNCTION      0.00  1557.92     0  01:40           0        2.61       0.701
  YS02001910           JUNCTION      0.00  1034.23     0  01:40           0         1.8       0.398
  YS02001915           JUNCTION    592.49  1034.16     0  01:40        1.12        1.86       0.072
  YS02001918           JUNCTION      0.00   723.27     0  01:38           0       0.768       0.005
  YS02001920           JUNCTION      2.87   630.40     0  01:38      0.0827       0.737       0.083
  YS02001923           JUNCTION      0.04   785.95     0  01:38     0.00109       0.635      -0.153
  YS02001926           JUNCTION      0.05  1105.04     0  01:39      0.0015       0.613      -0.528
  YS02001929           JUNCTION    278.07  1077.92     0  01:39        0.59       0.596      -0.456
  YS02006553           JUNCTION      0.00   789.81     0  01:54           0        2.17       0.543
  YS02006556           JUNCTION      0.00   790.12     0  01:54           0        2.18       0.357
  YS02006558           JUNCTION    712.06  1174.07     0  01:38        1.18        3.33       0.107
  YS02006561           JUNCTION      0.00  1171.57     0  01:38           0        3.29      -0.002
  YS02163301           JUNCTION      0.00   831.63     0  02:06           0        3.07       0.041
  YS02163601           JUNCTION      0.11  1342.99     0  01:38     0.00317        4.23       0.115
  YS02164001           JUNCTION      0.00  1341.09     0  01:38           0        4.23       0.051
  CC-1                 OUTFALL       0.00   683.00     0  00:00           0         3.1       0.000
  CC-2                 OUTFALL       0.00   683.00     0  00:00           0        1.62       0.000
  JK-1                 OUTFALL       0.00  1000.00     0  00:00           0        1.83       0.000
  JK-2                 OUTFALL       0.00  1000.00     0  00:00           0      0.0484       0.000
  WSC                  OUTFALL       0.00   549.57     0  02:45           0        5.42       0.000
  CC-storage           STORAGE       0.00  3321.00     0  01:42           0        10.9      -0.110
  JK-storage           STORAGE       0.00  1216.54     0  01:45           0        3.48       0.065
  
  
  **********************
  Node Surcharge Summary
  **********************
  
  Surcharging occurs when water rises above the top of the highest conduit.
  ---------------------------------------------------------------------
                                               Max. Height   Min. Depth
                                   Hours       Above Crown    Below Rim
  Node                 Type      Surcharged         Meters       Meters
  ---------------------------------------------------------------------
  WS02006109           JUNCTION        1.97          0.443        1.377
  WS02006110           JUNCTION        0.65          0.406        1.444
  WS02006112           JUNCTION        0.74          0.084        1.596
  WS02006228           JUNCTION        1.97          0.377        1.823
  WS02006229           JUNCTION        1.98          0.454        1.996
  WS02006230           JUNCTION        0.66          0.404        1.166
  WS02006231           JUNCTION        0.91          0.507        1.023
  WS02006232           JUNCTION        2.00          0.849        0.631
  WS02006234           JUNCTION        1.49          1.240        0.000
  WS02006235           JUNCTION        1.92          1.290        0.000
  WS02006238           JUNCTION        1.98          1.238        0.192
  WS02006239           JUNCTION        1.95          0.939        0.351
  WS02006240           JUNCTION        1.97          0.881        0.509
  WS02006242           JUNCTION        1.99          0.820        0.000
  WS02006243           JUNCTION        1.97          0.770        0.000
  WS02006245           JUNCTION        1.96          0.746        0.104
  WS02006247           JUNCTION        1.97          0.760        0.000
  WS02006248           JUNCTION        1.96          0.380        0.000
  WS02006249           JUNCTION        1.95          0.390        0.000
  WS02006251           JUNCTION        1.03          0.331        0.849
  WS02006252           JUNCTION        2.16          1.100        0.000
  WS02006256           JUNCTION        5.38          2.050        0.000
  YS02001580           JUNCTION        0.41          0.450        0.000
  YS02001583           JUNCTION        0.42          0.500        0.000
  YS02001586           JUNCTION        0.57          0.510        0.000
  YS02001590           JUNCTION        0.63          0.750        0.000
  YS02001593           JUNCTION        0.63          0.840        0.000
  YS02001596           JUNCTION        0.72          1.070        0.000
  YS02001600           JUNCTION        0.84          1.190        0.000
  YS02001601           JUNCTION        1.19          1.440        0.000
  YS02001602           JUNCTION        1.06          1.270        0.000
  YS02001605           JUNCTION        1.01          1.180        0.000
  YS02001607           JUNCTION        0.60          0.680        0.000
  YS02001610           JUNCTION        0.61          0.680        0.000
  YS02001613           JUNCTION        0.59          0.700        0.000
  YS02001616           JUNCTION        0.55          0.610        0.000
  YS02001619           JUNCTION        0.54          0.610        0.000
  YS02001622           JUNCTION        0.54          0.589        0.031
  YS02001625           JUNCTION        0.69          0.780        0.000
  YS02001629           JUNCTION        0.48          0.470        0.000
  YS02001633           JUNCTION        0.71          1.060        0.000
  YS02001641           JUNCTION        0.65          1.100        0.000
  YS02001644           JUNCTION        0.62          0.920        0.000
  YS02001647           JUNCTION        0.44          0.818        0.082
  YS02001649           JUNCTION        0.55          0.988        0.062
  YS02001652           JUNCTION        0.37          1.097        0.033
  YS02001655           JUNCTION        0.20          1.200        0.000
  YS02001658           JUNCTION        0.02          1.300        0.000
  YS02001751           JUNCTION        0.05          0.800        0.400
  YS02001754           JUNCTION        0.25          0.793        0.357
  YS02001757           JUNCTION        0.60          0.917        0.293
  YS02001759           JUNCTION        0.50          0.856        0.354
  YS02001762           JUNCTION        0.47          0.827        0.323
  YS02001765           JUNCTION        0.43          0.801        0.299
  YS02001767           JUNCTION        0.39          0.813        0.217
  YS02001770           JUNCTION        0.37          0.920        0.000
  YS02001774           JUNCTION        0.46          1.019        0.031
  YS02001779           JUNCTION        0.24          0.680        0.000
  YS02001783           JUNCTION        0.42          0.558        1.042
  YS02001784           JUNCTION        0.40          0.432        1.058
  YS02001786           JUNCTION        0.30          0.142        1.288
  YS02001882           JUNCTION        0.37          0.830        0.000
  YS02001884           JUNCTION        0.38          0.870        0.000
  YS02001887           JUNCTION        0.41          0.950        0.000
  YS02001890           JUNCTION        0.42          0.760        0.000
  YS02001895           JUNCTION        0.36          0.750        0.000
  YS02001898           JUNCTION        0.35          0.740        0.000
  YS02001901           JUNCTION        0.40          0.870        0.000
  YS02001904           JUNCTION        0.39          0.850        0.000
  YS02001907           JUNCTION        0.57          0.950        0.000
  YS02001910           JUNCTION        0.44          0.965        0.135
  YS02001915           JUNCTION        0.37          0.897        0.103
  YS02001918           JUNCTION        0.29          0.810        0.000
  YS02001920           JUNCTION        0.30          1.140        0.000
  YS02001923           JUNCTION        0.01          0.820        0.000
  YS02001926           JUNCTION        0.02          0.900        0.000
  YS02001929           JUNCTION        0.01          0.780        0.000
  YS02006553           JUNCTION        0.58          1.012        0.178
  YS02006556           JUNCTION        0.51          0.998        0.352
  YS02006558           JUNCTION        0.50          0.991        0.409
  YS02006561           JUNCTION        0.25          0.253        0.897
  YS02163301           JUNCTION        0.69          1.030        0.000
  YS02163601           JUNCTION        0.73          1.080        0.000
  YS02164001           JUNCTION        0.66          1.100        0.000
  
  
  *********************
  Node Flooding Summary
  *********************
  
  Flooding refers to all water that overflows a node, whether it ponds or not.
  --------------------------------------------------------------------------
                                                             Total   Maximum
                                 Maximum   Time of Max       Flood    Ponded
                        Hours       Rate    Occurrence      Volume     Depth
  Node                 Flooded       LPS   days hr:min    10^6 ltr    Meters
  --------------------------------------------------------------------------
  WS02006234              0.01      0.34      0  03:10       0.000     0.000
  WS02006235              0.01      0.60      0  03:10       0.000     0.000
  WS02006242              0.01      5.40      0  02:18       0.000     0.000
  WS02006243              0.01      3.63      0  03:14       0.000     0.000
  WS02006247              0.01      0.32      0  03:10       0.000     0.000
  WS02006248              0.02     28.98      0  02:35       0.001     0.000
  WS02006249              0.97     95.36      0  01:48       0.223     0.000
  WS02006252              0.01    245.63      0  00:00       0.000     0.000
  WS02006256              1.33    293.19      0  00:00       0.452     0.000
  YS02001580              0.01    196.41      0  01:37       0.001     0.000
  YS02001583              0.01    180.80      0  01:37       0.001     0.000
  YS02001586              0.30    172.36      0  01:37       0.075     0.000
  YS02001590              0.01    152.52      0  01:36       0.000     0.000
  YS02001593              0.01     66.87      0  01:36       0.000     0.000
  YS02001596              0.01     32.65      0  01:36       0.000     0.000
  YS02001600              0.01     18.58      0  01:36       0.000     0.000
  YS02001601              0.50    741.49      0  01:41       0.752     0.000
  YS02001602              0.38     62.02      0  01:52       0.078     0.000
  YS02001605              0.01     12.41      0  01:37       0.000     0.000
  YS02001607              0.01    237.16      0  01:37       0.001     0.000
  YS02001610              0.34    265.33      0  01:38       0.213     0.000
  YS02001613              0.01     78.95      0  01:37       0.000     0.000
  YS02001616              0.01    108.87      0  01:37       0.000     0.000
  YS02001619              0.01     59.87      0  01:37       0.000     0.000
  YS02001625              0.30    727.62      0  01:42       0.352     0.000
  YS02001629              0.03    105.30      0  01:37       0.002     0.000
  YS02001633              0.01      6.77      0  01:38       0.000     0.000
  YS02001641              0.01      3.57      0  01:50       0.000     0.000
  YS02001644              0.01     30.35      0  01:41       0.000     0.000
  YS02001655              0.01     82.04      0  01:40       0.000     0.000
  YS02001658              0.01    280.52      0  01:40       0.000     0.000
  YS02001770              0.01     98.21      0  01:39       0.000     0.000
  YS02001779              0.01    309.80      0  01:39       0.004     0.000
  YS02001882              0.01     10.96      0  01:38       0.000     0.000
  YS02001884              0.01      9.44      0  01:38       0.000     0.000
  YS02001887              0.01     11.56      0  01:38       0.000     0.000
  YS02001890              0.04    231.09      0  01:38       0.005     0.000
  YS02001895              0.01     68.44      0  01:38       0.000     0.000
  YS02001898              0.01     83.41      0  01:38       0.000     0.000
  YS02001901              0.01     38.08      0  01:38       0.000     0.000
  YS02001904              0.01     96.88      0  01:38       0.000     0.000
  YS02001907              0.23   1114.13      0  01:40       0.421     0.000
  YS02001918              0.01    198.46      0  01:39       0.003     0.000
  YS02001920              0.01     73.24      0  01:39       0.000     0.000
  YS02001923              0.01    103.89      0  01:39       0.000     0.000
  YS02001926              0.01    418.87      0  01:39       0.004     0.000
  YS02001929              0.01    851.58      0  01:39       0.003     0.000
  YS02163301              0.01      2.23      0  01:50       0.000     0.000
  YS02163601              0.01      9.19      0  01:38       0.000     0.000
  YS02164001              0.01      8.33      0  01:50       0.000     0.000
  
  
  **********************
  Storage Volume Summary
  **********************
  
  ------------------------------------------------------------------------------------------------
                         Average    Avg   Evap  Exfil     Maximum    Max    Time of Max    Maximum
                          Volume   Pcnt   Pcnt   Pcnt      Volume   Pcnt     Occurrence    Outflow
  Storage Unit           1000 m³   Full   Loss   Loss     1000 m³   Full    days hr:min        LPS
  ------------------------------------------------------------------------------------------------
  CC-storage               2.610   40.7    0.0    0.0       4.132   64.5       0  02:06    1783.53
  JK-storage               0.161   55.4    0.0    0.0       0.213   73.1       0  01:45    2300.00
  
  
  ***********************
  Outfall Loading Summary
  ***********************
  
  -----------------------------------------------------------
                         Flow       Avg       Max       Total
                         Freq      Flow      Flow      Volume
  Outfall Node           Pcnt       LPS       LPS    10^6 ltr
  -----------------------------------------------------------
  CC-1                  17.40    683.00    683.00       3.102
  CC-2                  10.27    683.00    683.00       1.616
  JK-1                   8.99   1000.00   1000.00       1.833
  JK-2                   0.15   1000.00   1000.00       0.048
  WSC                   99.96    256.93    549.57       5.423
  -----------------------------------------------------------
  System                27.35   3622.93   3366.23      12.023
  
  
  ********************
  Link Flow Summary
  ********************
  
  -----------------------------------------------------------------------------
                                 Maximum  Time of Max   Maximum    Max/    Max/
                                  |Flow|   Occurrence   |Veloc|    Full    Full
  Link                 Type          LPS  days hr:min     m/sec    Flow   Depth
  -----------------------------------------------------------------------------
  1                    CONDUIT    549.57     0  02:45      2.82    0.19    0.30
  WS02003060WS02003069 CONDUIT    548.81     0  02:44      1.64    0.21    0.34
  WS02003066WSF200     CONDUIT    532.08     0  02:43      2.85    0.09    0.22
  WS02003067WS02003066 CONDUIT    532.04     0  02:43      1.20    0.17    0.41
  WS02003069WS02003072 CONDUIT    548.68     0  02:44      1.37    0.26    0.39
  WS02003072WS02003073 CONDUIT    548.28     0  02:44      1.43    1.18    0.37
  WS02004401WS02004402 CONDUIT    538.44     0  02:37      1.23    0.65    0.86
  WS02004402WS02004403 CONDUIT    537.31     0  02:37      1.24    0.77    0.88
  WS02004403WS02004404 CONDUIT    536.53     0  02:37      1.17    0.39    0.93
  WS02004404WS02004405 CONDUIT    536.59     0  02:38      1.43    5.26    0.96
  WS02004405WS02004406 CONDUIT    535.88     0  02:38      1.39    1.06    0.95
  WS02004406WS02004407 CONDUIT    534.97     0  02:41      1.04    0.24    0.62
  WS02004407WS02004409 CONDUIT    534.88     0  02:41      1.59    0.19    0.48
  WS02004409WS02004410 CONDUIT    533.74     0  02:42      1.05    0.69    0.67
  WS02004410WS02004411 CONDUIT    533.33     0  02:42      1.01    0.73    0.68
  WS02004411WS02004412 CONDUIT    532.68     0  02:42      0.95    0.76    0.69
  WS02004412WS02004413 CONDUIT    532.11     0  02:42      0.87    0.36    0.77
  WS02004413WS02003067 CONDUIT    531.95     0  02:43      1.10    0.23    0.59
  WS02006109WS02006110 CONDUIT    565.77     0  03:19      1.13    1.09    1.00
  WS02006110WS02006113 CONDUIT    569.88     0  03:19      1.38    0.52    0.79
  WS02006111WS02006112 CONDUIT    545.91     0  02:49      1.96    0.26    0.67
  WS02006112WS02006115 CONDUIT    555.47     0  01:57      0.86    0.33    0.87
  WS02006113WS02006111 CONDUIT    568.97     0  02:49      2.48    0.68    0.47
  WS02006115WS02006116 CONDUIT    542.33     0  02:37      1.19    0.70    0.76
  WS02006116WS02004401 CONDUIT    541.46     0  02:37      1.22    0.75    0.84
  WS02006228WS02006109 CONDUIT    562.11     0  03:19      1.12    2.46    1.00
  WS02006229WS02006228 CONDUIT    557.26     0  03:19      1.14    1.85    1.00
  WS02006230WS02006229 CONDUIT    556.86     0  03:19      1.45   12.39    1.00
  WS02006231WS02006230 CONDUIT    584.24     0  02:01      1.58    8.86    1.00
  WS02006232WS02006231 CONDUIT    595.25     0  03:14      1.55    1.25    1.00
  WS02006234WS02006232 CONDUIT    593.46     0  03:14      1.54    1.20    1.00
  WS02006235WS02006234 CONDUIT    584.66     0  03:14      1.52    6.17    1.00
  WS02006238WS02006235 CONDUIT    426.30     0  02:10      1.54    0.95    1.00
  WS02006239WS02006238 CONDUIT    426.35     0  02:10      1.11    1.36    1.00
  WS02006240WS02006239 CONDUIT    424.18     0  02:10      1.24    1.33    1.00
  WS02006242WS02006240 CONDUIT    420.58     0  02:20      1.13    1.67    1.00
  WS02006243WS02006242 CONDUIT    420.97     0  02:10      1.40    0.90    1.00
  WS02006245WS02006243 CONDUIT    421.51     0  02:10      1.45    1.25    1.00
  WS02006247WS02006245 CONDUIT    422.38     0  02:10      1.43    3.35    1.00
  WS02006248WS02006247 CONDUIT    423.09     0  02:10      1.44    0.92    1.00
  WS02006249WS02006248 CONDUIT    423.54     0  02:11      1.36    2.32    1.00
  WS02006251WS02006249 CONDUIT    459.02     0  00:00      1.99    1.32    1.00
  WS02006252WS02006251 CONDUIT    405.98     0  01:48     25.30    1.49    1.00
  WS02006256WS02006235 CONDUIT    288.91     0  00:00      4.23    3.06    1.00
  WSF200WS02003060     CONDUIT    532.43     0  02:43      2.06    0.12    0.28
  YS02001580YS02001583 CONDUIT    258.02     0  01:37      1.09    1.00    1.00
  YS02001583YS02001586 CONDUIT    262.20     0  01:37      1.15    0.40    1.00
  YS02001586YS02001590 CONDUIT    318.32     0  01:49      1.35    0.56    1.00
  YS02001590YS02001593 CONDUIT    317.97     0  01:53      1.12    2.00    1.00
  YS02001593YS02001596 CONDUIT    317.86     0  01:44      1.72    0.50    1.00
  YS02001596YS02001600 CONDUIT    318.13     0  01:49      1.19    0.62    1.00
  YS02001600YS02001601 CONDUIT    318.50     0  01:49      1.13    0.55    1.00
  YS02001601YS02001602 CONDUIT    594.91     0  01:37      2.10    2.15    1.00
  YS02001602YS02001605 CONDUIT    594.69     0  01:37      2.10   12.58    1.00
  YS02001605YS02001607 CONDUIT    594.60     0  01:37      2.10    3.26    1.00
  YS02001607YS02001610 CONDUIT    564.34     0  01:37      0.77    0.54    1.00
  YS02001610YS02001613 CONDUIT    531.58     0  01:37      0.72    0.61    1.00
  YS02001613YS02001616 CONDUIT    486.45     0  01:37      0.70    0.42    1.00
  YS02001616YS02001619 CONDUIT    478.61     0  02:07      0.67    0.83    1.00
  YS02001619YS02001622 CONDUIT    848.87     0  01:37      1.43    1.25    1.00
  YS02001622YS02001625 CONDUIT    834.45     0  01:40      1.06    0.45    1.00
  YS02001625YS02001629 CONDUIT    828.55     0  02:02      1.05    0.39    1.00
  YS02001629YS02163301 CONDUIT    831.63     0  02:06      1.06    1.02    1.00
  YS02001633YS02163601 CONDUIT   1342.88     0  01:38      1.71    1.41    1.00
  YS02001641YS02001644 CONDUIT   1337.94     0  01:38      1.70    4.33    1.00
  YS02001644YS02001647 CONDUIT   1849.29     0  01:38      2.35    1.09    1.00
  YS02001647YS02001649 CONDUIT   1856.34     0  01:38      2.36    0.98    1.00
  YS02001649YS02001757 CONDUIT   2174.34     0  01:39      2.77    1.32    1.00
  YS02001652YS02001649 CONDUIT    625.17     0  01:42      0.97    0.31    1.00
  YS02001655YS02001652 CONDUIT    625.44     0  01:42      1.78    0.30    1.00
  YS02001658YS02001655 CONDUIT    765.88     0  01:39      2.14    0.32    1.00
  YS02001661YS02001658 CONDUIT    665.42     0  01:40      2.44    0.26    0.90
  YS02001664YS02001661 CONDUIT    533.11     0  01:40      2.37    0.17    0.57
  YS02001745YS02001748 CONDUIT    583.86     0  01:43      2.33    0.22    0.70
  YS02001748YS02001751 CONDUIT    537.18     0  01:43      1.94    0.27    1.00
  YS02001751YS02001754 CONDUIT    440.73     0  01:41      1.80    0.21    1.00
  YS02001754YS02001757 CONDUIT    440.59     0  01:41      0.74    0.18    1.00
  YS02001757CaochengTiaoxuchi CONDUIT   3321.00     0  01:42      4.35    1.44    1.00
  YS02001759YS02001757 CONDUIT   1255.21     0  01:40      1.60    0.89    1.00
  YS02001762YS02001759 CONDUIT    757.24     0  01:40      0.96    0.87    1.00
  YS02001765YS02001762 CONDUIT    751.44     0  01:40      0.96    0.70    1.00
  YS02001767YS02001765 CONDUIT    747.09     0  01:40      0.95    0.94    1.00
  YS02001770YS02001767 CONDUIT    741.65     0  01:40      1.02    2.94    1.00
  YS02001774YS02001770 CONDUIT    355.27     0  01:39      0.45    0.23    1.00
  YS02001779YS02001774 CONDUIT    317.60     0  01:39      0.41    0.16    1.00
  YS02001783YS02001784 CONDUIT   1154.21     0  01:39      2.30    1.59    1.00
  YS02001784YS02001785 CONDUIT   1155.06     0  01:39      2.30    2.69    1.00
  YS02001786YS02001788 CONDUIT   1160.44     0  01:39      2.49    2.24    0.89
  YS02001788YS02001790 CONDUIT   1164.44     0  01:40      2.71    0.86    0.83
  YS02001790YS02001791 CONDUIT   1271.10     0  01:47      3.42    1.38    0.70
  YS02001791YS02001793 CONDUIT   1234.20     0  01:47      6.48    0.53    0.44
  YS02001793JiankangQianchi CONDUIT   1216.54     0  01:45      2.38    0.10    0.64
  YS02001882YS02001884 CONDUIT     77.82     0  01:37      0.14    0.09    1.00
  YS02001884YS02001887 CONDUIT    126.50     0  01:37      0.17    0.17    1.00
  YS02001887YS02001890 CONDUIT    590.62     0  01:38      0.75    1.01    1.00
  YS02001890YS02001895 CONDUIT    597.57     0  01:38      0.76    0.28    1.00
  YS02001895YS02001898 CONDUIT    603.33     0  01:38      0.77    1.05    1.00
  YS02001898YS02001901 CONDUIT    610.73     0  01:38      0.78    0.39    1.00
  YS02001901YS02001904 CONDUIT    613.29     0  01:38      0.78    0.95    1.00
  YS02001904YS02001907 CONDUIT    616.29     0  01:38      0.78    0.22    1.00
  YS02001907YS02006553 CONDUIT    789.81     0  01:54      0.88    0.93    1.00
  YS02001910YS02001907 CONDUIT   1035.24     0  01:40      1.32    0.58    1.00
  YS02001915YS02001910 CONDUIT   1034.23     0  01:40      1.32    0.51    1.00
  YS02001918YS02001915 CONDUIT    723.27     0  01:38      0.95    0.40    1.00
  YS02001920YS02001918 CONDUIT    627.53     0  01:38      0.80    0.61    1.00
  YS02001923YS02001920 CONDUIT    634.74     0  01:38      0.89    0.28    1.00
  YS02001926YS02001923 CONDUIT    883.53     0  01:39      1.35    1.26    1.00
  YS02001929YS02001926 CONDUIT    824.75     0  01:39      1.20    0.39    1.00
  YS02006553YS02006556 CONDUIT    790.12     0  01:54      1.01    0.68    1.00
  YS02006556YS02006558 CONDUIT    790.04     0  01:54      1.01    0.62    1.00
  YS02006558YS02006561 CONDUIT   1171.57     0  01:38      4.14    2.59    1.00
  YS02006561YS02001783 CONDUIT   1153.41     0  01:39      2.29    0.60    1.00
  YS02163301YS02001633 CONDUIT    831.53     0  02:06      1.06    0.78    1.00
  YS02163601YS02164001 CONDUIT   1341.09     0  01:38      1.71    1.19    1.00
  YS02164001YS02001641 CONDUIT   1339.72     0  01:38      1.71    1.83    1.00
  CC-R1                PUMP       683.00     0  00:00              1.00
  CC-R2                PUMP       683.00     0  00:00              1.00
  CC-S1                PUMP       200.00     0  00:00              1.00
  CC-S2                PUMP       200.00     0  00:00              1.00
  JK-R1                PUMP      1000.00     0  00:00              1.00
  JK-R2                PUMP      1000.00     0  00:00              1.00
  JK-S                 PUMP       300.00     0  00:00              1.00
  
  
  ***************************
  Flow Classification Summary
  ***************************
  
  -------------------------------------------------------------------------------------
                      Adjusted    ---------- Fraction of Time in Flow Class ---------- 
                       /Actual         Up    Down  Sub   Sup   Up    Down  Norm  Inlet 
  Conduit               Length    Dry  Dry   Dry   Crit  Crit  Crit  Crit  Ltd   Ctrl  
  -------------------------------------------------------------------------------------
  1                       1.00   0.00  0.00  0.00  0.00  1.00  0.00  0.00  0.44  0.00
  WS02003060WS02003069    1.00   0.00  0.00  0.00  0.98  0.02  0.00  0.00  0.70  0.00
  WS02003066WSF200        1.00   0.06  0.00  0.00  0.00  0.94  0.00  0.00  0.84  0.00
  WS02003067WS02003066    1.00   0.05  0.01  0.00  0.94  0.00  0.00  0.00  0.00  0.00
  WS02003069WS02003072    1.00   0.00  0.00  0.00  0.99  0.01  0.00  0.00  0.74  0.00
  WS02003072WS02003073    1.00   0.00  0.00  0.00  0.00  0.00  0.00  1.00  0.00  0.00
  WS02004401WS02004402    1.00   0.02  0.00  0.00  0.98  0.00  0.00  0.00  0.00  0.00
  WS02004402WS02004403    1.00   0.02  0.00  0.00  0.98  0.00  0.00  0.00  0.00  0.00
  WS02004403WS02004404    1.00   0.00  0.03  0.00  0.97  0.00  0.00  0.00  0.00  0.00
  WS02004404WS02004405    1.00   0.00  0.00  0.00  1.00  0.00  0.00  0.00  0.01  0.00
  WS02004405WS02004406    1.00   0.00  0.00  0.00  1.00  0.00  0.00  0.00  0.00  0.00
  WS02004406WS02004407    1.00   0.00  0.03  0.00  0.96  0.00  0.00  0.00  0.00  0.00
  WS02004407WS02004409    1.00   0.04  0.00  0.00  0.95  0.01  0.00  0.00  0.96  0.00
  WS02004409WS02004410    1.00   0.04  0.00  0.00  0.96  0.00  0.00  0.00  0.00  0.00
  WS02004410WS02004411    1.00   0.04  0.00  0.00  0.96  0.00  0.00  0.00  0.00  0.00
  WS02004411WS02004412    1.00   0.04  0.00  0.00  0.96  0.00  0.00  0.00  0.00  0.00
  WS02004412WS02004413    1.00   0.04  0.00  0.00  0.96  0.00  0.00  0.00  0.00  0.00
  WS02004413WS02003067    1.00   0.04  0.01  0.00  0.00  0.00  0.95  0.00  0.00  0.00
  WS02006109WS02006110    1.00   0.00  0.01  0.00  0.98  0.00  0.01  0.00  0.00  0.00
  WS02006110WS02006113    1.00   0.01  0.01  0.00  0.98  0.00  0.00  0.00  0.00  0.00
  WS02006111WS02006112    1.00   0.02  0.00  0.00  0.98  0.00  0.00  0.00  0.98  0.00
  WS02006112WS02006115    1.00   0.02  0.00  0.00  0.97  0.00  0.00  0.00  0.00  0.00
  WS02006113WS02006111    1.00   0.02  0.00  0.00  0.00  0.98  0.00  0.00  0.13  0.00
  WS02006115WS02006116    1.00   0.02  0.00  0.00  0.97  0.00  0.00  0.01  0.00  0.00
  WS02006116WS02004401    1.00   0.02  0.00  0.00  0.98  0.00  0.00  0.00  0.00  0.00
  WS02006228WS02006109    1.00   0.00  0.00  0.00  1.00  0.00  0.00  0.00  0.00  0.00
  WS02006229WS02006228    1.00   0.00  0.00  0.00  0.99  0.00  0.00  0.01  0.00  0.00
  WS02006230WS02006229    1.00   0.00  0.00  0.00  0.99  0.00  0.00  0.01  0.00  0.00
  WS02006231WS02006230    1.00   0.00  0.00  0.00  0.26  0.00  0.74  0.00  0.00  0.00
  WS02006232WS02006231    1.00   0.00  0.00  0.00  0.99  0.00  0.01  0.00  0.00  0.00
  WS02006234WS02006232    1.00   0.00  0.00  0.00  1.00  0.00  0.00  0.00  0.18  0.00
  WS02006235WS02006234    1.00   0.00  0.00  0.00  0.77  0.00  0.23  0.00  0.00  0.00
  WS02006238WS02006235    1.00   0.00  0.00  0.00  1.00  0.00  0.00  0.00  0.00  0.00
  WS02006239WS02006238    1.00   0.00  0.00  0.00  1.00  0.00  0.00  0.00  0.33  0.00
  WS02006240WS02006239    1.00   0.00  0.00  0.00  0.60  0.00  0.00  0.40  0.02  0.00
  WS02006242WS02006240    1.00   0.00  0.00  0.00  0.99  0.00  0.01  0.00  0.00  0.00
  WS02006243WS02006242    1.00   0.00  0.00  0.00  0.99  0.00  0.00  0.01  0.54  0.00
  WS02006245WS02006243    1.00   0.00  0.00  0.00  0.70  0.00  0.00  0.30  0.01  0.00
  WS02006247WS02006245    1.00   0.00  0.00  0.00  0.98  0.00  0.00  0.02  0.00  0.00
  WS02006248WS02006247    1.00   0.00  0.00  0.00  0.99  0.00  0.00  0.01  0.27  0.00
  WS02006249WS02006248    1.00   0.00  0.00  0.00  0.46  0.00  0.54  0.00  0.00  0.00
  WS02006251WS02006249    1.00   0.00  0.00  0.00  0.99  0.01  0.00  0.00  0.55  0.00
  WS02006252WS02006251    1.00   0.00  0.58  0.00  0.13  0.00  0.29  0.00  0.00  0.00
  WS02006256WS02006235    1.00   0.00  0.00  0.00  1.00  0.00  0.00  0.00  0.00  0.00
  WSF200WS02003060        1.00   0.00  0.06  0.00  0.36  0.58  0.00  0.00  0.56  0.00
  YS02001580YS02001583    1.00   0.20  0.63  0.00  0.17  0.00  0.00  0.00  0.72  0.00
  YS02001583YS02001586    1.00   0.45  0.32  0.00  0.23  0.00  0.00  0.00  0.72  0.00
  YS02001586YS02001590    1.00   0.13  0.00  0.00  0.38  0.04  0.00  0.45  0.34  0.00
  YS02001590YS02001593    1.00   0.13  0.01  0.00  0.09  0.00  0.77  0.00  0.00  0.00
  YS02001593YS02001596    1.00   0.14  0.00  0.00  0.10  0.01  0.00  0.75  0.02  0.00
  YS02001596YS02001600    1.00   0.14  0.00  0.00  0.17  0.02  0.00  0.67  0.06  0.00
  YS02001600YS02001601    1.00   0.13  0.01  0.00  0.86  0.00  0.00  0.00  0.63  0.00
  YS02001601YS02001602    1.00   0.13  0.01  0.00  0.86  0.00  0.00  0.00  0.00  0.00
  YS02001602YS02001605    1.00   0.14  0.00  0.00  0.86  0.00  0.00  0.00  0.00  0.00
  YS02001605YS02001607    1.00   0.14  0.00  0.00  0.86  0.00  0.00  0.00  0.00  0.00
  YS02001607YS02001610    1.00   0.13  0.01  0.00  0.86  0.00  0.00  0.00  0.02  0.00
  YS02001610YS02001613    1.00   0.13  0.00  0.00  0.87  0.00  0.00  0.00  0.01  0.00
  YS02001613YS02001616    1.00   0.13  0.00  0.00  0.87  0.00  0.00  0.00  0.01  0.00
  YS02001616YS02001619    1.00   0.13  0.00  0.00  0.87  0.00  0.00  0.00  0.00  0.00
  YS02001619YS02001622    1.00   0.13  0.00  0.00  0.87  0.00  0.00  0.00  0.31  0.00
  YS02001622YS02001625    1.00   0.13  0.00  0.00  0.87  0.00  0.00  0.00  0.05  0.00
  YS02001625YS02001629    1.00   0.13  0.05  0.00  0.13  0.00  0.69  0.00  0.00  0.00
  YS02001629YS02163301    1.00   0.16  0.01  0.00  0.83  0.00  0.00  0.00  0.00  0.00
  YS02001633YS02163601    1.00   0.00  0.01  0.00  0.99  0.00  0.00  0.00  0.15  0.00
  YS02001641YS02001644    1.00   0.00  0.01  0.00  0.99  0.00  0.00  0.00  0.00  0.00
  YS02001644YS02001647    1.00   0.00  0.18  0.00  0.82  0.00  0.00  0.00  0.00  0.00
  YS02001647YS02001649    1.00   0.00  0.18  0.00  0.55  0.28  0.00  0.00  0.58  0.00
  YS02001649YS02001757    1.00   0.00  0.00  0.00  0.92  0.08  0.00  0.00  0.45  0.00
  YS02001652YS02001649    1.00   0.00  0.00  0.00  0.96  0.04  0.00  0.00  0.74  0.00
  YS02001655YS02001652    1.00   0.00  0.00  0.00  0.16  0.02  0.00  0.82  0.08  0.00
  YS02001658YS02001655    1.00   0.00  0.15  0.00  0.64  0.22  0.00  0.00  0.73  0.00
  YS02001661YS02001658    1.00   0.15  0.00  0.00  0.48  0.37  0.00  0.00  0.76  0.00
  YS02001664YS02001661    1.00   0.13  0.00  0.00  0.78  0.10  0.00  0.00  0.86  0.00
  YS02001745YS02001748    1.00   0.00  0.00  0.00  0.06  0.01  0.00  0.93  0.05  0.00
  YS02001748YS02001751    1.00   0.00  0.00  0.00  0.81  0.19  0.00  0.00  0.80  0.00
  YS02001751YS02001754    1.00   0.00  0.00  0.00  0.14  0.00  0.00  0.85  0.05  0.00
  YS02001754YS02001757    1.00   0.00  0.00  0.00  1.00  0.00  0.00  0.00  0.83  0.00
  YS02001757CaochengTiaoxuchi    1.00   0.00  0.00  0.00  0.98  0.02  0.00  0.00  0.60  0.00
  YS02001759YS02001757    1.00   0.00  0.00  0.00  1.00  0.00  0.00  0.00  0.53  0.00
  YS02001762YS02001759    1.00   0.00  0.00  0.00  1.00  0.00  0.00  0.00  0.05  0.00
  YS02001765YS02001762    1.00   0.00  0.00  0.00  1.00  0.00  0.00  0.00  0.69  0.00
  YS02001767YS02001765    1.00   0.00  0.00  0.00  1.00  0.00  0.00  0.00  0.01  0.00
  YS02001770YS02001767    1.00   0.00  0.00  0.00  1.00  0.00  0.00  0.00  0.00  0.00
  YS02001774YS02001770    1.00   0.00  0.14  0.00  0.68  0.00  0.18  0.00  0.03  0.00
  YS02001779YS02001774    1.00   0.00  0.00  0.00  1.00  0.00  0.00  0.00  0.80  0.00
  YS02001783YS02001784    1.00   0.00  0.18  0.00  0.82  0.00  0.00  0.00  0.57  0.00
  YS02001784YS02001785    1.00   0.00  0.00  0.00  1.00  0.00  0.00  0.00  0.17  0.00
  YS02001786YS02001788    1.00   0.00  0.00  0.00  0.79  0.21  0.00  0.00  0.00  0.00
  YS02001788YS02001790    1.00   0.00  0.00  0.00  0.20  0.80  0.00  0.00  0.85  0.00
  YS02001790YS02001791    1.00   0.00  0.00  0.00  0.01  0.99  0.00  0.00  0.16  0.00
  YS02001791YS02001793    1.00   0.00  0.00  0.00  0.00  1.00  0.00  0.00  0.01  0.00
  YS02001793JiankangQianchi    1.00   0.00  0.00  0.00  0.99  0.00  0.00  0.00  0.96  0.00
  YS02001882YS02001884    1.00   0.16  0.01  0.00  0.83  0.00  0.00  0.00  0.00  0.00
  YS02001884YS02001887    1.00   0.06  0.05  0.00  0.89  0.00  0.00  0.00  0.00  0.00
  YS02001887YS02001890    1.00   0.00  0.00  0.00  0.97  0.00  0.03  0.00  0.00  0.00
  YS02001890YS02001895    1.00   0.00  0.17  0.00  0.83  0.00  0.00  0.00  0.00  0.00
  YS02001895YS02001898    1.00   0.17  0.00  0.00  0.82  0.00  0.01  0.00  0.00  0.00
  YS02001898YS02001901    1.00   0.17  0.00  0.00  0.83  0.00  0.00  0.00  0.01  0.00
  YS02001901YS02001904    1.00   0.17  0.00  0.00  0.83  0.00  0.00  0.00  0.00  0.00
  YS02001904YS02001907    1.00   0.00  0.17  0.00  0.83  0.00  0.00  0.00  0.00  0.00
  YS02001907YS02006553    1.00   0.00  0.02  0.00  0.98  0.00  0.00  0.00  0.00  0.00
  YS02001910YS02001907    1.00   0.00  0.00  0.00  0.97  0.00  0.00  0.03  0.12  0.00
  YS02001915YS02001910    1.00   0.00  0.00  0.00  0.96  0.04  0.00  0.00  0.16  0.00
  YS02001918YS02001915    1.00   0.00  0.01  0.00  0.98  0.02  0.00  0.00  0.77  0.00
  YS02001920YS02001918    1.00   0.00  0.01  0.00  0.99  0.00  0.00  0.00  0.00  0.00
  YS02001923YS02001920    1.00   0.00  0.00  0.00  1.00  0.00  0.00  0.00  0.94  0.00
  YS02001926YS02001923    1.00   0.00  0.07  0.00  0.05  0.00  0.88  0.00  0.00  0.00
  YS02001929YS02001926    1.00   0.00  0.13  0.00  0.87  0.00  0.00  0.00  0.83  0.00
  YS02006553YS02006556    1.00   0.01  0.00  0.00  0.99  0.00  0.00  0.00  0.03  0.00
  YS02006556YS02006558    1.00   0.00  0.00  0.00  1.00  0.00  0.00  0.00  0.00  0.00
  YS02006558YS02006561    1.00   0.18  0.00  0.00  0.04  0.78  0.00  0.00  0.20  0.00
  YS02006561YS02001783    1.00   0.18  0.00  0.00  0.07  0.75  0.00  0.00  0.71  0.00
  YS02163301YS02001633    1.00   0.00  0.16  0.00  0.84  0.00  0.00  0.00  0.00  0.00
  YS02163601YS02164001    1.00   0.00  0.08  0.00  0.92  0.00  0.00  0.00  0.00  0.00
  YS02164001YS02001641    1.00   0.01  0.07  0.00  0.92  0.00  0.00  0.00  0.06  0.00
  
  
  *************************
  Conduit Surcharge Summary
  *************************
  
  ----------------------------------------------------------------------------
                                                           Hours        Hours 
                         --------- Hours Full --------   Above Full   Capacity
  Conduit                Both Ends  Upstream  Dnstream   Normal Flow   Limited
  ----------------------------------------------------------------------------
  WS02003072WS02003073        0.01      0.01      0.01      1.53         0.01
  WS02004404WS02004405        0.01      0.01      0.01      3.24         0.01
  WS02004405WS02004406        0.01      0.01      0.01      0.64         0.01
  WS02006109WS02006110        0.65      0.65      1.99      0.86         0.01
  WS02006110WS02006113        0.01      0.01      1.99      0.01         0.01
  WS02006111WS02006112        0.01      0.01      2.22      0.01         0.01
  WS02006112WS02006115        0.01      0.01      0.74      0.01         0.01
  WS02006228WS02006109        1.97      1.99      1.97      2.54         1.97
  WS02006229WS02006228        1.97      1.98      1.97      2.20         1.94
  WS02006230WS02006229        2.04      2.13      2.04      4.09         2.04
  WS02006231WS02006230        0.66      0.66      1.00      3.69         0.01
  WS02006232WS02006231        0.90      0.90      2.00      1.01         0.01
  WS02006234WS02006232        1.90      1.90      2.00      0.99         0.97
  WS02006235WS02006234        1.48      1.49      1.91      3.50         0.03
  WS02006238WS02006235        1.94      1.94      2.01      0.01         0.01
  WS02006239WS02006238        1.98      1.99      1.98      2.06         1.73
  WS02006240WS02006239        1.95      1.98      1.95      2.06         1.66
  WS02006242WS02006240        1.97      1.97      2.01      2.17         0.01
  WS02006243WS02006242        1.97      1.97      1.99      0.01         0.08
  WS02006245WS02006243        1.97      1.97      1.97      1.34         1.25
  WS02006247WS02006245        1.96      1.97      1.96      3.28         1.95
  WS02006248WS02006247        1.96      1.96      1.97      0.01         0.08
  WS02006249WS02006248        1.95      1.96      1.95      3.23         0.01
  WS02006251WS02006249        1.95      1.95      1.95      2.11         1.83
  WS02006252WS02006251        2.15      2.15      2.16      2.16         0.01
  WS02006256WS02006235        3.48      3.54      5.33      1.33         0.01
  YS02001580YS02001583        0.41      0.41      0.47      0.01         0.01
  YS02001583YS02001586        0.42      0.42      0.57      0.01         0.01
  YS02001586YS02001590        0.58      0.58      0.63      0.01         0.01
  YS02001590YS02001593        0.63      0.63      0.65      0.69         0.01
  YS02001593YS02001596        0.64      0.64      0.72      0.01         0.01
  YS02001596YS02001600        0.75      0.75      0.84      0.01         0.01
  YS02001600YS02001601        0.89      0.89      1.19      0.01         0.01
  YS02001601YS02001602        1.06      1.06      1.24      0.85         0.01
  YS02001602YS02001605        1.01      1.01      1.06      1.99         0.01
  YS02001605YS02001607        0.97      1.01      0.97      1.13         0.97
  YS02001607YS02001610        0.60      0.60      0.61      0.01         0.01
  YS02001610YS02001613        0.59      0.59      0.61      0.01         0.01
  YS02001613YS02001616        0.55      0.55      0.59      0.01         0.01
  YS02001616YS02001619        0.54      0.54      0.55      0.01         0.01
  YS02001619YS02001622        0.53      0.54      0.54      0.67         0.50
  YS02001622YS02001625        0.54      0.54      0.69      0.01         0.01
  YS02001625YS02001629        0.48      0.48      0.69      0.01         0.01
  YS02001629YS02163301        0.68      0.68      0.69      0.17         0.16
  YS02001633YS02163601        0.71      0.71      0.73      0.39         0.38
  YS02001641YS02001644        0.62      0.65      0.62      1.30         0.62
  YS02001644YS02001647        0.44      0.44      0.62      0.03         0.01
  YS02001647YS02001649        0.44      0.44      0.55      0.01         0.01
  YS02001649YS02001757        0.55      0.55      0.60      0.27         0.23
  YS02001652YS02001649        0.39      0.39      0.55      0.01         0.01
  YS02001655YS02001652        0.19      0.19      0.37      0.01         0.01
  YS02001658YS02001655        0.02      0.02      0.19      0.01         0.01
  YS02001661YS02001658        0.01      0.01      0.02      0.01         0.01
  YS02001748YS02001751        0.01      0.01      0.05      0.01         0.01
  YS02001751YS02001754        0.05      0.05      0.25      0.01         0.01
  YS02001754YS02001757        0.31      0.31      0.60      0.01         0.01
  YS02001757CaochengTiaoxuchi        0.52      0.60      2.00      0.28         0.18
  YS02001759YS02001757        0.50      0.50      0.60      0.01         0.01
  YS02001762YS02001759        0.47      0.47      0.50      0.01         0.01
  YS02001765YS02001762        0.43      0.43      0.47      0.01         0.01
  YS02001767YS02001765        0.39      0.39      0.43      0.01         0.02
  YS02001770YS02001767        0.39      0.40      0.39      0.40         0.29
  YS02001774YS02001770        0.37      0.37      0.46      0.01         0.01
  YS02001779YS02001774        0.24      0.24      0.46      0.01         0.01
  YS02001783YS02001784        0.40      0.42      0.40      0.53         0.40
  YS02001784YS02001785        0.30      0.40      0.30      0.71         0.30
  YS02001786YS02001788        0.01      0.30      0.01      0.60         0.01
  YS02001790YS02001791        0.01      0.01      0.01      0.39         0.01
  YS02001793JiankangQianchi        0.01      0.01      7.70      0.01         0.01
  YS02001882YS02001884        0.37      0.37      0.38      0.01         0.01
  YS02001884YS02001887        0.40      0.40      0.41      0.01         0.01
  YS02001887YS02001890        0.42      0.42      0.43      0.01         0.01
  YS02001890YS02001895        0.36      0.36      0.45      0.01         0.01
  YS02001895YS02001898        0.35      0.35      0.36      0.01         0.01
  YS02001898YS02001901        0.36      0.36      0.40      0.01         0.01
  YS02001901YS02001904        0.39      0.39      0.40      0.01         0.01
  YS02001904YS02001907        0.39      0.39      0.58      0.01         0.01
  YS02001907YS02006553        0.72      0.72      0.78      0.01         0.01
  YS02001910YS02001907        0.44      0.44      0.57      0.01         0.01
  YS02001915YS02001910        0.37      0.37      0.44      0.01         0.01
  YS02001918YS02001915        0.29      0.29      0.37      0.01         0.01
  YS02001920YS02001918        0.29      0.29      0.30      0.01         0.01
  YS02001923YS02001920        0.25      0.25      0.30      0.01         0.01
  YS02001926YS02001923        0.01      0.01      0.01      0.01         0.01
  YS02001929YS02001926        0.01      0.01      0.01      0.01         0.01
  YS02006553YS02006556        0.51      0.51      0.59      0.01         0.01
  YS02006556YS02006558        0.55      0.55      0.60      0.01         0.01
  YS02006558YS02006561        0.32      0.50      0.32      0.67         0.32
  YS02006561YS02001783        0.25      0.25      0.42      0.01         0.01
  YS02163301YS02001633        0.69      0.69      0.72      0.01         0.01
  YS02163601YS02164001        0.66      0.66      0.73      0.03         0.01
  YS02164001YS02001641        0.65      0.66      0.65      0.73         0.62
  
  
  ***************
  Pumping Summary
  ***************
  
  ---------------------------------------------------------------------------------------------------------
                                                  Min       Avg       Max     Total     Power    % Time Off
                        Percent   Number of      Flow      Flow      Flow    Volume     Usage    Pump Curve
  Pump                 Utilized   Start-Ups       LPS       LPS       LPS  10^6 ltr     Kw-hr    Low   High
  ---------------------------------------------------------------------------------------------------------
  CC-R1                   15.77           2      0.00    683.00    683.00     3.102     57.37    0.0   10.7
  CC-R2                    8.21           2      0.00    683.00    683.00     1.615     29.85    0.0   20.5
  CC-S1                   41.97           5      0.00    200.00    200.00     2.418     14.27    0.0    0.0
  CC-S2                   26.95           2      0.00    200.00    200.00     1.552      9.08    0.0    0.0
  JK-R1                    6.37          11      0.00   1000.00   1000.00     1.834     22.14    0.0    0.0
  JK-R2                    0.16           1      0.00   1000.00   1000.00     0.047      0.36    0.0    0.0
  JK-S                    16.57          25      0.00    300.00    300.00     1.432     18.61    0.0    0.0
  

  Analysis begun on:  Thu Apr 24 00:06:04 2025
  Analysis ended on:  Thu Apr 24 00:06:06 2025
  Total elapsed time: 00:00:02