
  EPA STORM WATER MANAGEMENT MODEL - VERSION 5.2 (Build 5.2.4)
  PYSWMM TOOLKIT API - VERSION v1.0 (2023-11-27)
  ------------------------------------------------------------

  WARNING 04: minimum elevation drop used for Conduit WS02004404WS02004405
  WARNING 03: negative offset ignored for Link YS02001904YS02001907
  
  ****************
  Analysis Options
  ****************
  Flow Units ............... LPS
  Process Models:
    Rainfall/Runoff ........ YES
    RDII ................... NO
    Snowmelt ............... NO
    Groundwater ............ NO
    Flow Routing ........... YES
    Ponding Allowed ........ NO
    Water Quality .......... NO
  Infiltration Method ...... HORTON
  Flow Routing Method ...... DYNWAVE
  Surcharge Method ......... EXTRAN
  Starting Date ............ 08/28/2015 08:00:00
  Ending Date .............. 08/28/2015 16:00:00
  Antecedent Dry Days ...... 8.0
  Report Time Step ......... 00:01:00
  Wet Time Step ............ 00:01:00
  Dry Time Step ............ 00:01:00
  Routing Time Step ........ 30.00 sec
  Variable Time Step ....... YES
  Maximum Trials ........... 8
  Number of Threads ........ 4
  Head Tolerance ........... 0.001500 m
  
  
  **************************        Volume         Depth
  Runoff Quantity Continuity     hectare-m            mm
  **************************     ---------       -------
  Total Precipitation ......         2.232        67.282
  Evaporation Loss .........         0.000         0.000
  Infiltration Loss ........         0.102         3.062
  Surface Runoff ...........         2.098        63.238
  Final Storage ............         0.033         0.995
  Continuity Error (%) .....        -0.020
  
  
  **************************        Volume        Volume
  Flow Routing Continuity        hectare-m      10^6 ltr
  **************************     ---------     ---------
  Dry Weather Inflow .......         0.025         0.251
  Wet Weather Inflow .......         2.097        20.974
  Groundwater Inflow .......         0.000         0.000
  RDII Inflow ..............         0.000         0.000
  External Inflow ..........         0.083         0.834
  External Outflow .........         1.480        14.803
  Flooding Loss ............         0.693         6.931
  Evaporation Loss .........         0.000         0.000
  Exfiltration Loss ........         0.000         0.000
  Initial Stored Volume ....         0.243         2.431
  Final Stored Volume ......         0.278         2.778
  Continuity Error (%) .....        -0.090
  
  
  *************************
  Highest Continuity Errors
  *************************
  Node YS02001884 (5.01%)
  Node YS02001583 (-4.20%)
  
  
  ***************************
  Time-Step Critical Elements
  ***************************
  Link WS02006252WS02006251 (45.50%)
  Link WS02004404WS02004405 (14.04%)
  Link WS02006238WS02006235 (12.15%)
  Link YS02001791YS02001793 (8.57%)
  Link WS02006235WS02006234 (5.29%)
  
  
  ********************************
  Highest Flow Instability Indexes
  ********************************
  Link WS02006113WS02006111 (47)
  Link WS02006111WS02006112 (23)
  Link WS02006252WS02006251 (16)
  Link WS02006238WS02006235 (14)
  Link WS02006256WS02006235 (13)
  
  
  *********************************
  Most Frequent Nonconverging Nodes
  *********************************
  Node CC-1 (12.21%)
  Node CC-2 (12.21%)
  Node JK-1 (12.21%)
  Node JK-2 (12.21%)
  Node WSC (12.21%)
  
  
  *************************
  Routing Time Step Summary
  *************************
  Minimum Time Step           :     0.01 sec
  Average Time Step           :     2.05 sec
  Maximum Time Step           :     7.04 sec
  % of Time in Steady State   :     0.00
  Average Iterations per Step :     3.05
  % of Steps Not Converging   :    12.21
  Time Step Frequencies       :
     30.000 - 13.228 sec      :     0.00 %
     13.228 -  5.833 sec      :     9.19 %
      5.833 -  2.572 sec      :    20.21 %
      2.572 -  1.134 sec      :    19.32 %
      1.134 -  0.500 sec      :    51.29 %
  
  
  ***************************
  Subcatchment Runoff Summary
  ***************************
  
  ------------------------------------------------------------------------------------------------------------------------------
                            Total      Total      Total      Total     Imperv       Perv      Total       Total     Peak  Runoff
                           Precip      Runon       Evap      Infil     Runoff     Runoff     Runoff      Runoff   Runoff   Coeff
  Subcatchment                 mm         mm         mm         mm         mm         mm         mm    10^6 ltr      LPS
  ------------------------------------------------------------------------------------------------------------------------------
  sub60                     67.28       0.00       0.00       1.83      58.01       6.25      64.25        0.84   566.92   0.955
  sub61                     67.28       0.00       0.00       2.65      54.71       8.79      63.50        1.17   788.45   0.944
  sub62                     67.28       0.00       0.00       1.22      60.61       4.17      64.78        1.77  1106.97   0.963
  sub63                     67.28       0.00       0.00       4.92      46.80      14.60      61.40        1.39   892.38   0.913
  sub64                     67.28       0.00       0.00       2.48      55.98       7.61      63.59        1.53   913.70   0.945
  sub65                     67.28       0.00       0.00       2.15      57.28       6.60      63.88        1.76  1023.02   0.949
  sub66                     67.28       0.00       0.00       6.11      46.69      13.41      60.10        2.80  1363.18   0.893
  sub67                     67.28       0.00       0.00       1.17      60.66       4.21      64.87        1.21   850.81   0.964
  sub68                     67.28       0.00       0.00       2.20      56.68       7.22      63.90        1.76  1134.23   0.950
  sub69                     67.28       0.00       0.00       1.98      57.08       8.12      65.20        2.41  1359.68   0.969
  sub70                     67.28       0.00       0.00       6.61      44.24      16.27      60.51        1.75   766.56   0.899
  sub71                     67.28       0.00       0.00       1.25      60.57       4.13      64.70        1.69   987.16   0.962
  sub72                     67.28       0.00       0.00       1.11      61.17       3.60      64.76        0.89   479.98   0.963
  
  
  ******************
  Node Depth Summary
  ******************
  
  ---------------------------------------------------------------------------------
                                 Average  Maximum  Maximum  Time of Max    Reported
                                   Depth    Depth      HGL   Occurrence   Max Depth
  Node                 Type       Meters   Meters   Meters  days hr:min      Meters
  ---------------------------------------------------------------------------------
  WS02003060           JUNCTION     0.23     0.38     5.31     0  03:13        0.38
  WS02003066           JUNCTION     0.19     0.30     5.85     0  03:12        0.30
  WS02003067           JUNCTION     0.50     0.70     6.02     0  03:12        0.70
  WS02003069           JUNCTION     0.26     0.43     5.01     0  03:13        0.43
  WS02003072           JUNCTION     0.32     0.50     4.87     0  03:14        0.50
  WS02003073           JUNCTION     0.18     0.30     4.36     0  03:14        0.30
  WS02004401           JUNCTION     0.58     0.85     6.85     0  03:10        0.85
  WS02004402           JUNCTION     0.62     0.88     6.84     0  03:09        0.88
  WS02004403           JUNCTION     0.64     0.89     6.82     0  03:10        0.89
  WS02004404           JUNCTION     0.71     0.96     6.81     0  03:10        0.96
  WS02004405           JUNCTION     0.71     0.96     6.81     0  03:10        0.95
  WS02004406           JUNCTION     0.72     0.96     6.79     0  02:31        0.96
  WS02004407           JUNCTION     0.17     0.30     6.61     0  03:10        0.30
  WS02004409           JUNCTION     0.39     0.67     6.44     0  03:11        0.67
  WS02004410           JUNCTION     0.41     0.68     6.40     0  03:11        0.68
  WS02004411           JUNCTION     0.43     0.69     6.37     0  03:12        0.69
  WS02004412           JUNCTION     0.46     0.70     6.34     0  03:12        0.70
  WS02004413           JUNCTION     0.62     0.86     6.33     0  03:12        0.86
  WS02006109           JUNCTION     0.64     1.36     7.98     0  02:58        1.19
  WS02006110           JUNCTION     0.65     1.48     8.06     0  02:58        1.07
  WS02006111           JUNCTION     0.17     0.29     7.00     0  03:13        0.29
  WS02006112           JUNCTION     0.74     1.09     6.97     0  02:37        1.06
  WS02006113           JUNCTION     0.27     0.46     7.36     0  03:13        0.46
  WS02006115           JUNCTION     0.47     0.75     6.89     0  02:30        0.75
  WS02006116           JUNCTION     0.55     0.83     6.87     0  02:30        0.83
  WS02006228           JUNCTION     0.63     1.42     8.07     0  02:52        1.21
  WS02006229           JUNCTION     0.61     1.49     8.18     0  02:52        1.25
  WS02006230           JUNCTION     0.60     1.81     8.55     0  02:52        1.31
  WS02006231           JUNCTION     0.41     1.35     8.47     0  02:52        0.95
  WS02006232           JUNCTION     0.55     1.48     8.52     0  02:52        1.47
  WS02006234           JUNCTION     0.47     1.79     8.95     0  03:13        1.79
  WS02006235           JUNCTION     0.51     1.71     8.87     0  03:13        1.71
  WS02006238           JUNCTION     0.53     1.66     8.81     0  02:53        1.66
  WS02006239           JUNCTION     0.50     2.03     9.24     0  02:53        2.03
  WS02006240           JUNCTION     0.47     2.10     9.39     0  02:53        2.10
  WS02006242           JUNCTION     0.54     1.55     8.82     0  02:53        1.55
  WS02006243           JUNCTION     0.44     1.48     8.90     0  02:53        1.48
  WS02006245           JUNCTION     0.45     1.56     9.04     0  02:53        1.56
  WS02006247           JUNCTION     0.47     1.47     8.97     0  02:53        1.47
  WS02006248           JUNCTION     0.43     1.10     8.69     0  02:05        1.10
  WS02006249           JUNCTION     0.47     1.09     8.69     0  02:03        1.09
  WS02006251           JUNCTION     0.47     1.50     9.17     0  02:52        1.14
  WS02006252           JUNCTION     0.34     1.50     9.74     0  00:00        0.71
  WS02006256           JUNCTION     0.98     2.35     9.28     0  00:00        2.35
  WSF200               JUNCTION     0.17     0.29     5.52     0  03:12        0.29
  YS02001580           JUNCTION     0.09     1.05     9.59     0  02:02        0.77
  YS02001583           JUNCTION     0.12     1.14     9.64     0  02:02        0.82
  YS02001586           JUNCTION     0.19     1.13     9.30     0  02:02        1.13
  YS02001590           JUNCTION     0.29     1.40     9.26     0  02:02        1.38
  YS02001593           JUNCTION     0.22     1.41     9.28     0  02:46        1.29
  YS02001596           JUNCTION     0.31     1.77     9.19     0  02:46        1.68
  YS02001600           JUNCTION     0.37     1.87     9.00     0  02:02        1.87
  YS02001601           JUNCTION     0.56     2.06     8.90     0  02:01        2.06
  YS02001602           JUNCTION     0.48     1.87     8.77     0  02:01        1.87
  YS02001605           JUNCTION     0.44     1.78     8.68     0  02:05        1.78
  YS02001607           JUNCTION     0.44     1.68     8.53     0  02:05        1.68
  YS02001610           JUNCTION     0.48     1.68     8.48     0  02:05        1.68
  YS02001613           JUNCTION     0.44     1.70     8.54     0  02:05        1.70
  YS02001616           JUNCTION     0.37     1.61     8.52     0  02:05        1.61
  YS02001619           JUNCTION     0.35     1.61     8.54     0  02:05        1.61
  YS02001622           JUNCTION     0.33     1.62     8.52     0  02:05        1.62
  YS02001625           JUNCTION     0.61     1.78     8.38     0  02:05        1.78
  YS02001629           JUNCTION     0.46     1.85     8.40     0  02:05        1.85
  YS02001633           JUNCTION     0.54     2.08     8.53     0  02:05        2.08
  YS02001641           JUNCTION     0.52     2.10     8.54     0  02:05        2.10
  YS02001644           JUNCTION     0.52     1.92     8.35     0  02:05        1.92
  YS02001647           JUNCTION     0.31     1.77     8.38     0  02:11        1.74
  YS02001649           JUNCTION     0.35     2.01     8.40     0  02:11        1.98
  YS02001652           JUNCTION     0.24     1.86     8.46     0  02:11        1.80
  YS02001655           JUNCTION     0.19     1.68     8.53     0  02:11        1.60
  YS02001658           JUNCTION     0.14     1.94     9.08     0  02:07        1.36
  YS02001661           JUNCTION     0.16     1.26     8.66     0  02:11        1.19
  YS02001664           JUNCTION     0.05     0.58     8.51     0  02:12        0.58
  YS02001745           JUNCTION     0.07     0.84     8.36     0  02:13        0.84
  YS02001748           JUNCTION     0.13     1.38     8.46     0  02:08        1.27
  YS02001751           JUNCTION     0.16     1.46     8.34     0  02:13        1.45
  YS02001754           JUNCTION     0.22     1.71     8.32     0  02:11        1.71
  YS02001757           JUNCTION     0.38     2.04     8.30     0  02:11        2.03
  YS02001759           JUNCTION     0.32     2.02     8.39     0  02:11        2.02
  YS02001762           JUNCTION     0.31     2.00     8.40     0  02:13        1.98
  YS02001765           JUNCTION     0.29     1.96     8.41     0  02:11        1.95
  YS02001767           JUNCTION     0.28     1.94     8.42     0  02:11        1.92
  YS02001770           JUNCTION     0.29     1.95     8.44     0  02:08        1.93
  YS02001774           JUNCTION     0.36     2.02     8.44     0  02:08        1.98
  YS02001779           JUNCTION     0.20     1.68     8.37     0  02:05        1.68
  YS02001783           JUNCTION     0.24     1.26     7.41     0  02:06        1.24
  YS02001784           JUNCTION     0.25     1.15     7.22     0  02:06        1.12
  YS02001786           JUNCTION     0.21     0.90     6.93     0  02:06        0.88
  YS02001788           JUNCTION     0.15     0.63     6.60     0  02:11        0.62
  YS02001790           JUNCTION     0.18     0.73     6.37     0  02:11        0.72
  YS02001791           JUNCTION     0.11     0.44     5.91     0  02:11        0.44
  YS02001793           JUNCTION     0.06     0.30     5.13     0  02:16        0.29
  YS02001882           JUNCTION     0.30     1.66     8.38     0  02:09        1.66
  YS02001884           JUNCTION     0.39     1.75     8.37     0  02:11        1.75
  YS02001887           JUNCTION     0.47     1.83     8.37     0  02:09        1.83
  YS02001890           JUNCTION     0.50     1.81     8.32     0  02:06        1.81
  YS02001895           JUNCTION     0.27     1.57     8.31     0  02:09        1.57
  YS02001898           JUNCTION     0.28     1.57     8.31     0  02:09        1.57
  YS02001901           JUNCTION     0.39     1.68     8.29     0  02:06        1.68
  YS02001904           JUNCTION     0.37     1.64     8.27     0  02:14        1.64
  YS02001907           JUNCTION     0.70     1.96     8.25     0  02:06        1.96
  YS02001910           JUNCTION     0.49     1.98     8.49     0  02:07        1.89
  YS02001915           JUNCTION     0.30     1.93     8.65     0  02:07        1.80
  YS02001918           JUNCTION     0.16     1.81     8.88     0  02:07        1.48
  YS02001920           JUNCTION     0.24     2.09     9.10     0  02:07        1.56
  YS02001923           JUNCTION     0.12     2.00     9.26     0  02:07        1.32
  YS02001926           JUNCTION     0.16     1.90     9.35     0  02:07        1.15
  YS02001929           JUNCTION     0.09     1.78     9.47     0  02:07        0.92
  YS02006553           JUNCTION     0.70     1.98     8.27     0  02:09        1.98
  YS02006556           JUNCTION     0.67     2.01     8.32     0  02:05        2.01
  YS02006558           JUNCTION     0.71     2.03     8.29     0  02:05        2.03
  YS02006561           JUNCTION     0.15     0.96     7.62     0  02:06        0.91
  YS02163301           JUNCTION     0.48     1.94     8.46     0  02:05        1.94
  YS02163601           JUNCTION     0.58     2.08     8.48     0  02:05        2.08
  YS02164001           JUNCTION     0.51     2.10     8.56     0  02:05        2.10
  CC-1                 OUTFALL      0.00     0.00     0.00     0  00:00        0.00
  CC-2                 OUTFALL      0.00     0.00     0.00     0  00:00        0.00
  JK-1                 OUTFALL      0.00     0.00     0.00     0  00:00        0.00
  JK-2                 OUTFALL      0.00     0.00     0.00     0  00:00        0.00
  WSC                  OUTFALL      0.18     0.30     0.97     0  03:15        0.30
  CC-storage           STORAGE      0.98     1.79     7.29     0  02:38        1.79
  JK-storage           STORAGE      3.37     4.24     5.04     0  02:20        4.19
  
  
  *******************
  Node Inflow Summary
  *******************
  
  -------------------------------------------------------------------------------------------------
                                  Maximum  Maximum                  Lateral       Total        Flow
                                  Lateral    Total  Time of Max      Inflow      Inflow     Balance
                                   Inflow   Inflow   Occurrence      Volume      Volume       Error
  Node                 Type           LPS      LPS  days hr:min    10^6 ltr    10^6 ltr     Percent
  -------------------------------------------------------------------------------------------------
  WS02003060           JUNCTION     16.53   552.12     0  03:12       0.476        5.32       0.044
  WS02003066           JUNCTION      0.00   535.57     0  03:12           0        4.85       0.029
  WS02003067           JUNCTION      0.00   535.56     0  03:12           0        4.85       0.087
  WS02003069           JUNCTION      0.32   552.47     0  03:13     0.00922        5.33       0.078
  WS02003072           JUNCTION      0.00   552.38     0  03:14           0        5.32       0.136
  WS02003073           JUNCTION      1.82   554.11     0  03:14      0.0524        5.37       0.112
  WS02004401           JUNCTION      0.00   545.21     0  03:14           0        4.95       0.205
  WS02004402           JUNCTION      0.00   540.41     0  03:14           0        4.94       0.209
  WS02004403           JUNCTION      0.00   536.99     0  03:14           0        4.93       0.204
  WS02004404           JUNCTION      0.16   536.80     0  02:31     0.00467        4.92       0.176
  WS02004405           JUNCTION      0.04   536.60     0  02:31      0.0011        4.92       0.249
  WS02004406           JUNCTION      0.00   536.49     0  03:09           0        4.91       0.421
  WS02004407           JUNCTION      0.00   536.11     0  03:10           0        4.88       0.024
  WS02004409           JUNCTION      0.00   536.05     0  03:10           0        4.88       0.056
  WS02004410           JUNCTION      0.00   535.86     0  03:11           0        4.88       0.091
  WS02004411           JUNCTION      0.00   535.72     0  03:11           0        4.88       0.116
  WS02004412           JUNCTION      0.00   535.69     0  03:11           0        4.87       0.155
  WS02004413           JUNCTION      0.00   535.61     0  03:12           0        4.86       0.275
  WS02006109           JUNCTION      1.23   561.21     0  02:36      0.0354           5       0.211
  WS02006110           JUNCTION      0.00   563.53     0  02:31           0        4.99       0.132
  WS02006111           JUNCTION      0.00   572.33     0  03:13           0        4.98       0.012
  WS02006112           JUNCTION      0.00   551.04     0  03:13           0        4.98       0.351
  WS02006113           JUNCTION      0.00   570.64     0  02:58           0        4.98       0.037
  WS02006115           JUNCTION      0.00   560.24     0  02:49           0        4.96       0.131
  WS02006116           JUNCTION      0.00   549.13     0  03:13           0        4.96       0.116
  WS02006228           JUNCTION      0.00   558.71     0  02:36           0        4.97       0.093
  WS02006229           JUNCTION      0.00   559.11     0  02:36           0        4.97       0.104
  WS02006230           JUNCTION     10.28   590.13     0  02:30       0.296        4.98       0.085
  WS02006231           JUNCTION      0.00   581.43     0  02:07           0        4.68      -0.103
  WS02006232           JUNCTION      0.00   580.34     0  02:07           0        4.69       0.232
  WS02006234           JUNCTION      0.00   574.38     0  02:07           0        4.68      -0.206
  WS02006235           JUNCTION      0.00   566.28     0  03:11           0        4.76       0.163
  WS02006238           JUNCTION      0.00   422.46     0  02:50           0        3.74      -0.131
  WS02006239           JUNCTION      0.00   424.61     0  02:05           0         3.7      -0.069
  WS02006240           JUNCTION      0.00   421.02     0  02:05           0        3.67      -0.053
  WS02006242           JUNCTION      0.00   421.22     0  02:05           0        3.64       0.002
  WS02006243           JUNCTION      0.00   421.06     0  02:05           0        3.62       0.105
  WS02006245           JUNCTION      0.00   420.77     0  02:05           0        3.62       0.294
  WS02006247           JUNCTION      0.00   420.95     0  02:05           0        3.62       0.000
  WS02006248           JUNCTION      0.00   421.56     0  02:05           0        3.62       0.060
  WS02006249           JUNCTION      0.00   459.02     0  00:00           0        3.88       0.331
  WS02006251           JUNCTION      0.08   406.61     0  02:03     0.00222        3.88      -0.043
  WS02006252           JUNCTION      0.00   400.00     0  00:00           0        3.88      -0.030
  WS02006256           JUNCTION      0.00   300.00     0  00:00           0        1.55      -0.794
  WSF200               JUNCTION      0.00   535.58     0  03:12           0        4.84       0.010
  YS02001580           JUNCTION      0.00    75.18     0  02:01           0     0.00421       0.427
  YS02001583           JUNCTION      0.00   131.99     0  02:01           0      0.0155      -4.032
  YS02001586           JUNCTION    766.56   766.62     0  02:15        1.75        1.76       0.060
  YS02001590           JUNCTION      0.00   317.97     0  02:22           0        1.37      -0.021
  YS02001593           JUNCTION      0.00   318.00     0  02:17           0        1.37       0.010
  YS02001596           JUNCTION      0.00   318.13     0  02:11           0        1.37      -0.005
  YS02001600           JUNCTION      0.00   318.07     0  02:35           0        1.37       0.023
  YS02001601           JUNCTION   1359.68  1677.13     0  02:14        2.41        3.78       0.025
  YS02001602           JUNCTION      0.00   502.02     0  02:01           0        2.34       0.020
  YS02001605           JUNCTION      0.00   501.83     0  02:01           0        2.21       0.028
  YS02001607           JUNCTION      0.00   501.64     0  02:01           0        2.21       0.096
  YS02001610           JUNCTION      0.00   753.02     0  02:15           0        2.45       0.099
  YS02001613           JUNCTION      0.00   498.40     0  02:01           0        1.96       0.085
  YS02001616           JUNCTION      0.00   501.23     0  02:00           0        1.96       0.023
  YS02001619           JUNCTION   1363.18  1363.18     0  02:15         2.8        4.53      -0.000
  YS02001622           JUNCTION      0.00   958.63     0  02:14           0        4.29      -0.004
  YS02001625           JUNCTION      0.00  1381.93     0  02:15           0        4.54       0.218
  YS02001629           JUNCTION      0.00   914.54     0  02:04           0        3.45       0.014
  YS02001633           JUNCTION   1023.22  1312.92     0  02:04        1.76        4.95       0.074
  YS02001641           JUNCTION      0.00  1315.68     0  02:05           0        4.69       0.059
  YS02001644           JUNCTION    913.74  1677.19     0  02:05        1.53        6.21       0.052
  YS02001647           JUNCTION      0.00  1686.41     0  02:05           0        5.69       0.007
  YS02001649           JUNCTION      0.00  1837.89     0  02:04           0        7.09       0.001
  YS02001652           JUNCTION      0.00   916.42     0  02:13           0         1.4      -0.083
  YS02001655           JUNCTION      0.15   916.39     0  02:13     0.00443         1.4       0.011
  YS02001658           JUNCTION      0.00   916.56     0  02:13           0        1.39      -0.085
  YS02001661           JUNCTION      0.00   915.48     0  02:13           0        1.39       0.007
  YS02001664           JUNCTION    892.38   892.38     0  02:13        1.39        1.39      -0.007
  YS02001745           JUNCTION    566.92   566.92     0  02:13       0.844       0.844       0.159
  YS02001748           JUNCTION      0.04   577.46     0  02:13      0.0013       0.844      -0.276
  YS02001751           JUNCTION      0.01   577.65     0  02:13    0.000317       0.852       0.116
  YS02001754           JUNCTION      0.26   577.99     0  02:13     0.00749       0.867      -0.183
  YS02001757           JUNCTION      0.00  3076.22     0  02:12           0        10.7       0.012
  YS02001759           JUNCTION    788.49  1280.70     0  02:11        1.17        2.72      -0.010
  YS02001762           JUNCTION      0.00   690.85     0  02:09           0        1.56       0.008
  YS02001765           JUNCTION      0.00   691.16     0  02:09           0        1.56      -0.010
  YS02001767           JUNCTION      0.54   690.88     0  02:09      0.0154        1.56       0.005
  YS02001770           JUNCTION   1107.12  1107.12     0  02:14        1.78        1.82      -0.016
  YS02001774           JUNCTION      0.00   631.80     0  02:13           0       0.303       0.353
  YS02001779           JUNCTION      0.01   631.56     0  02:13    0.000144       0.257      -0.173
  YS02001783           JUNCTION      0.00  1163.97     0  02:11           0        4.18       0.005
  YS02001784           JUNCTION      1.06  1165.67     0  02:11      0.0305        4.21       0.013
  YS02001786           JUNCTION      0.06  1165.33     0  02:11     0.00162        4.21       0.018
  YS02001788           JUNCTION      0.07  1167.65     0  02:11     0.00204        4.21       0.007
  YS02001790           JUNCTION      0.15  1173.42     0  02:13     0.00446        4.22       0.022
  YS02001791           JUNCTION      0.00  1297.19     0  02:12           0        4.22      -0.025
  YS02001793           JUNCTION      0.00  1249.84     0  02:15           0        4.22       0.000
  YS02001882           JUNCTION      0.00    30.11     0  02:03           0      0.0129       4.783
  YS02001884           JUNCTION      0.00    56.94     0  02:03           0      0.0488       5.273
  YS02001887           JUNCTION    851.26   851.29     0  02:13        1.22        1.25       0.353
  YS02001890           JUNCTION      0.00   851.00     0  02:13           0        1.21       0.420
  YS02001895           JUNCTION      0.00   517.83     0  02:14           0        1.11       0.144
  YS02001898           JUNCTION      0.00   517.67     0  02:14           0         1.1       0.022
  YS02001901           JUNCTION      0.00   517.53     0  02:17           0        1.11       0.299
  YS02001904           JUNCTION      0.00   517.39     0  02:14           0        1.11       0.245
  YS02001907           JUNCTION      0.00  1990.52     0  02:13           0        3.77       0.481
  YS02001910           JUNCTION      0.00  1473.86     0  02:13           0        2.67       0.272
  YS02001915           JUNCTION    987.18  1473.56     0  02:13        1.69         2.7       0.055
  YS02001918           JUNCTION      0.00   493.28     0  02:13           0        1.03       0.011
  YS02001920           JUNCTION      2.87   493.60     0  02:13      0.0827        1.01       0.089
  YS02001923           JUNCTION      0.04   489.70     0  02:13     0.00109       0.917       0.012
  YS02001926           JUNCTION      0.05   488.57     0  02:13      0.0015       0.899      -0.076
  YS02001929           JUNCTION    479.98   479.98     0  02:14        0.89       0.891      -0.048
  YS02006553           JUNCTION      0.00   800.24     0  02:29           0        2.45       0.494
  YS02006556           JUNCTION      0.00   800.42     0  02:29           0        2.45       0.330
  YS02006558           JUNCTION   1135.11  1164.97     0  02:11        1.78        4.21       0.074
  YS02006561           JUNCTION      0.00  1164.72     0  02:11           0        4.18       0.002
  YS02163301           JUNCTION      0.00   915.12     0  02:04           0        3.45       0.046
  YS02163601           JUNCTION      0.11  1312.54     0  02:04     0.00317        4.69       0.103
  YS02164001           JUNCTION      0.00  1312.84     0  02:04           0        4.69       0.041
  CC-1                 OUTFALL       0.00   683.00     0  00:00           0        3.83       0.000
  CC-2                 OUTFALL       0.00   683.00     0  00:00           0        2.99       0.000
  JK-1                 OUTFALL       0.00  1000.00     0  00:00           0        2.57       0.000
  JK-2                 OUTFALL       0.00  1000.00     0  00:00           0      0.0484       0.000
  WSC                  OUTFALL       0.00   553.98     0  03:15           0        5.36       0.000
  CC-storage           STORAGE       0.00  3076.31     0  02:12           0        12.9      -0.059
  JK-storage           STORAGE       0.00  1227.97     0  02:14           0        4.37       0.159
  
  
  **********************
  Node Surcharge Summary
  **********************
  
  Surcharging occurs when water rises above the top of the highest conduit.
  ---------------------------------------------------------------------
                                               Max. Height   Min. Depth
                                   Hours       Above Crown    Below Rim
  Node                 Type      Surcharged         Meters       Meters
  ---------------------------------------------------------------------
  WS02006109           JUNCTION        1.98          0.539        1.281
  WS02006110           JUNCTION        0.78          0.570        1.280
  WS02006112           JUNCTION        0.95          0.088        1.592
  WS02006228           JUNCTION        1.97          0.591        1.609
  WS02006229           JUNCTION        1.98          0.687        1.763
  WS02006230           JUNCTION        0.81          0.726        0.844
  WS02006231           JUNCTION        1.02          0.640        0.890
  WS02006232           JUNCTION        1.99          0.778        0.702
  WS02006234           JUNCTION        1.42          1.072        0.168
  WS02006235           JUNCTION        1.92          0.995        0.295
  WS02006238           JUNCTION        1.97          0.944        0.486
  WS02006239           JUNCTION        1.95          1.290        0.000
  WS02006240           JUNCTION        1.97          1.390        0.000
  WS02006242           JUNCTION        1.99          0.820        0.000
  WS02006243           JUNCTION        1.97          0.770        0.000
  WS02006245           JUNCTION        1.96          0.850        0.000
  WS02006247           JUNCTION        1.96          0.760        0.000
  WS02006248           JUNCTION        1.95          0.380        0.000
  WS02006249           JUNCTION        1.95          0.390        0.000
  WS02006251           JUNCTION        1.13          0.472        0.708
  WS02006252           JUNCTION        2.09          1.100        0.000
  WS02006256           JUNCTION        5.41          2.050        0.000
  YS02001580           JUNCTION        0.65          0.450        0.000
  YS02001583           JUNCTION        0.65          0.500        0.000
  YS02001586           JUNCTION        0.79          0.510        0.000
  YS02001590           JUNCTION        0.87          0.750        0.000
  YS02001593           JUNCTION        0.88          0.793        0.047
  YS02001596           JUNCTION        1.00          1.038        0.032
  YS02001600           JUNCTION        1.17          1.190        0.000
  YS02001601           JUNCTION        1.49          1.440        0.000
  YS02001602           JUNCTION        1.39          1.270        0.000
  YS02001605           JUNCTION        1.34          1.180        0.000
  YS02001607           JUNCTION        0.87          0.680        0.000
  YS02001610           JUNCTION        0.90          0.680        0.000
  YS02001613           JUNCTION        0.86          0.700        0.000
  YS02001616           JUNCTION        0.82          0.610        0.000
  YS02001619           JUNCTION        0.81          0.610        0.000
  YS02001622           JUNCTION        0.80          0.620        0.000
  YS02001625           JUNCTION        1.00          0.780        0.000
  YS02001629           JUNCTION        0.75          0.470        0.000
  YS02001633           JUNCTION        1.04          1.060        0.000
  YS02001641           JUNCTION        0.98          1.100        0.000
  YS02001644           JUNCTION        0.95          0.920        0.000
  YS02001647           JUNCTION        0.72          0.771        0.129
  YS02001649           JUNCTION        0.87          1.009        0.041
  YS02001652           JUNCTION        0.67          0.830        0.300
  YS02001655           JUNCTION        0.50          0.680        0.520
  YS02001658           JUNCTION        0.27          0.936        0.364
  YS02001661           JUNCTION        0.05          0.187        1.203
  YS02001748           JUNCTION        0.21          0.301        0.889
  YS02001751           JUNCTION        0.38          0.457        0.743
  YS02001754           JUNCTION        0.58          0.660        0.490
  YS02001757           JUNCTION        0.94          1.043        0.167
  YS02001759           JUNCTION        0.85          1.024        0.186
  YS02001762           JUNCTION        0.82          1.001        0.149
  YS02001765           JUNCTION        0.77          0.956        0.144
  YS02001767           JUNCTION        0.73          0.936        0.094
  YS02001770           JUNCTION        0.71          0.920        0.000
  YS02001774           JUNCTION        0.80          1.015        0.035
  YS02001779           JUNCTION        0.57          0.680        0.000
  YS02001783           JUNCTION        0.56          0.465        1.135
  YS02001784           JUNCTION        0.54          0.353        1.137
  YS02001786           JUNCTION        0.42          0.097        1.333
  YS02001882           JUNCTION        0.50          0.664        0.166
  YS02001884           JUNCTION        0.51          0.692        0.178
  YS02001887           JUNCTION        0.55          0.782        0.168
  YS02001890           JUNCTION        0.57          0.760        0.000
  YS02001895           JUNCTION        0.49          0.568        0.182
  YS02001898           JUNCTION        0.49          0.540        0.200
  YS02001901           JUNCTION        0.54          0.677        0.193
  YS02001904           JUNCTION        0.53          0.641        0.209
  YS02001907           JUNCTION        0.81          0.950        0.000
  YS02001910           JUNCTION        0.59          0.982        0.118
  YS02001915           JUNCTION        0.50          0.934        0.066
  YS02001918           JUNCTION        0.41          0.810        0.000
  YS02001920           JUNCTION        0.42          1.092        0.048
  YS02001923           JUNCTION        0.12          0.792        0.028
  YS02001926           JUNCTION        0.15          0.900        0.000
  YS02001929           JUNCTION        0.01          0.780        0.000
  YS02006553           JUNCTION        0.83          0.984        0.206
  YS02006556           JUNCTION        0.70          0.967        0.383
  YS02006558           JUNCTION        0.68          0.925        0.475
  YS02006561           JUNCTION        0.38          0.157        0.993
  YS02163301           JUNCTION        1.02          0.939        0.091
  YS02163601           JUNCTION        1.08          1.080        0.000
  YS02164001           JUNCTION        0.98          1.100        0.000
  
  
  *********************
  Node Flooding Summary
  *********************
  
  Flooding refers to all water that overflows a node, whether it ponds or not.
  --------------------------------------------------------------------------
                                                             Total   Maximum
                                 Maximum   Time of Max       Flood    Ponded
                        Hours       Rate    Occurrence      Volume     Depth
  Node                 Flooded       LPS   days hr:min    10^6 ltr    Meters
  --------------------------------------------------------------------------
  WS02006239              0.01      0.42      0  02:53       0.000     0.000
  WS02006240              0.01      0.83      0  02:53       0.000     0.000
  WS02006242              0.01      1.33      0  02:53       0.000     0.000
  WS02006243              0.01      0.79      0  02:53       0.000     0.000
  WS02006245              0.01      0.60      0  02:53       0.000     0.000
  WS02006247              0.01      0.45      0  02:53       0.000     0.000
  WS02006248              0.02     48.96      0  03:13       0.001     0.000
  WS02006249              1.08     98.67      0  02:03       0.252     0.000
  WS02006252              0.01    245.63      0  00:00       0.000     0.000
  WS02006256              1.43    293.19      0  00:00       0.486     0.000
  YS02001580              0.01     24.66      0  02:02       0.000     0.000
  YS02001583              0.01     92.49      0  02:02       0.000     0.000
  YS02001586              0.50    449.05      0  02:15       0.380     0.000
  YS02001590              0.01      3.41      0  02:02       0.000     0.000
  YS02001600              0.01     14.18      0  02:46       0.000     0.000
  YS02001601              0.72   1279.27      0  02:14       1.443     0.000
  YS02001602              0.61     62.00      0  02:16       0.125     0.000
  YS02001605              0.01      0.41      0  02:38       0.000     0.000
  YS02001607              0.01      0.60      0  02:05       0.000     0.000
  YS02001610              0.54    752.65      0  02:15       0.721     0.000
  YS02001613              0.01      1.05      0  02:05       0.000     0.000
  YS02001616              0.01      1.29      0  02:05       0.000     0.000
  YS02001619              0.01      2.35      0  02:05       0.000     0.000
  YS02001622              0.01      0.85      0  02:05       0.000     0.000
  YS02001625              0.52   1381.73      0  02:15       1.336     0.000
  YS02001629              0.14     50.76      0  02:09       0.013     0.000
  YS02001633              0.01      1.05      0  02:05       0.000     0.000
  YS02001641              0.01      2.15      0  02:05       0.000     0.000
  YS02001644              0.24   1189.03      0  02:13       0.517     0.000
  YS02001770              0.01      7.51      0  02:08       0.000     0.000
  YS02001779              0.20    631.55      0  02:13       0.237     0.000
  YS02001890              0.19    335.08      0  02:13       0.101     0.000
  YS02001907              0.36   1964.96      0  02:13       1.317     0.000
  YS02001918              0.01     93.88      0  02:07       0.001     0.000
  YS02001926              0.01     16.74      0  02:07       0.000     0.000
  YS02001929              0.01    240.53      0  02:07       0.001     0.000
  YS02163601              0.01      1.61      0  02:05       0.000     0.000
  YS02164001              0.01      3.63      0  02:05       0.000     0.000
  
  
  **********************
  Storage Volume Summary
  **********************
  
  ------------------------------------------------------------------------------------------------
                         Average    Avg   Evap  Exfil     Maximum    Max    Time of Max    Maximum
                          Volume   Pcnt   Pcnt   Pcnt      Volume   Pcnt     Occurrence    Outflow
  Storage Unit           1000 m³   Full   Loss   Loss     1000 m³   Full    days hr:min        LPS
  ------------------------------------------------------------------------------------------------
  CC-storage               2.735   42.7    0.0    0.0       4.988   77.8       0  02:38    1783.53
  JK-storage               0.169   58.1    0.0    0.0       0.213   73.1       0  02:20    2300.00
  
  
  ***********************
  Outfall Loading Summary
  ***********************
  
  -----------------------------------------------------------
                         Flow       Avg       Max       Total
                         Freq      Flow      Flow      Volume
  Outfall Node           Pcnt       LPS       LPS    10^6 ltr
  -----------------------------------------------------------
  CC-1                  21.45    683.00    683.00       3.825
  CC-2                  17.15    683.00    683.00       2.993
  JK-1                  11.65   1000.00   1000.00       2.574
  JK-2                   0.15   1000.00   1000.00       0.048
  WSC                   99.96    255.55    553.98       5.362
  -----------------------------------------------------------
  System                30.07   3621.55   3366.23      14.803
  
  
  ********************
  Link Flow Summary
  ********************
  
  -----------------------------------------------------------------------------
                                 Maximum  Time of Max   Maximum    Max/    Max/
                                  |Flow|   Occurrence   |Veloc|    Full    Full
  Link                 Type          LPS  days hr:min     m/sec    Flow   Depth
  -----------------------------------------------------------------------------
  1                    CONDUIT    553.98     0  03:15      2.83    0.19    0.30
  WS02003060WS02003069 CONDUIT    552.15     0  03:13      1.64    0.22    0.34
  WS02003066WSF200     CONDUIT    535.58     0  03:12      2.85    0.09    0.22
  WS02003067WS02003066 CONDUIT    535.57     0  03:12      1.21    0.17    0.42
  WS02003069WS02003072 CONDUIT    552.38     0  03:14      1.37    0.27    0.39
  WS02003072WS02003073 CONDUIT    552.29     0  03:14      1.43    1.19    0.37
  WS02004401WS02004402 CONDUIT    540.41     0  03:14      0.98    0.65    0.86
  WS02004402WS02004403 CONDUIT    536.99     0  03:14      0.97    0.77    0.88
  WS02004403WS02004404 CONDUIT    536.64     0  02:31      0.92    0.39    0.93
  WS02004404WS02004405 CONDUIT    536.56     0  02:31      1.08    5.26    0.96
  WS02004405WS02004406 CONDUIT    536.49     0  03:09      0.99    1.06    0.96
  WS02004406WS02004407 CONDUIT    536.11     0  03:10      1.04    0.24    0.63
  WS02004407WS02004409 CONDUIT    536.05     0  03:10      1.53    0.19    0.48
  WS02004409WS02004410 CONDUIT    535.86     0  03:11      1.00    0.69    0.67
  WS02004410WS02004411 CONDUIT    535.72     0  03:11      0.94    0.73    0.69
  WS02004411WS02004412 CONDUIT    535.69     0  03:11      0.92    0.76    0.69
  WS02004412WS02004413 CONDUIT    535.61     0  03:12      0.82    0.36    0.78
  WS02004413WS02003067 CONDUIT    535.56     0  03:12      1.11    0.23    0.59
  WS02006109WS02006110 CONDUIT    563.53     0  02:31      1.12    1.08    1.00
  WS02006110WS02006113 CONDUIT    570.64     0  02:58      1.38    0.52    0.79
  WS02006111WS02006112 CONDUIT    551.04     0  03:13      1.81    0.26    0.67
  WS02006112WS02006115 CONDUIT    560.24     0  02:49      0.82    0.33    0.87
  WS02006113WS02006111 CONDUIT    572.33     0  03:13      2.47    0.69    0.47
  WS02006115WS02006116 CONDUIT    549.13     0  03:13      1.00    0.70    0.76
  WS02006116WS02004401 CONDUIT    545.21     0  03:14      0.98    0.75    0.84
  WS02006228WS02006109 CONDUIT    559.98     0  02:36      1.11    2.45    1.00
  WS02006229WS02006228 CONDUIT    558.71     0  02:36      1.14    1.85    1.00
  WS02006230WS02006229 CONDUIT    559.11     0  02:36      1.45   12.44    1.00
  WS02006231WS02006230 CONDUIT    579.85     0  02:30      1.59    8.80    1.00
  WS02006232WS02006231 CONDUIT    581.43     0  02:07      1.51    1.22    1.00
  WS02006234WS02006232 CONDUIT    580.34     0  02:07      1.51    1.17    1.00
  WS02006235WS02006234 CONDUIT    574.38     0  02:07      1.49    6.06    1.00
  WS02006238WS02006235 CONDUIT    423.57     0  02:45      1.49    0.95    1.00
  WS02006239WS02006238 CONDUIT    422.46     0  02:50      1.10    1.35    1.00
  WS02006240WS02006239 CONDUIT    424.61     0  02:05      1.24    1.34    1.00
  WS02006242WS02006240 CONDUIT    421.02     0  02:05      1.13    1.67    1.00
  WS02006243WS02006242 CONDUIT    421.22     0  02:05      1.40    0.90    1.00
  WS02006245WS02006243 CONDUIT    421.06     0  02:05      1.45    1.25    1.00
  WS02006247WS02006245 CONDUIT    420.77     0  02:05      1.43    3.34    1.00
  WS02006248WS02006247 CONDUIT    420.95     0  02:05      1.44    0.92    1.00
  WS02006249WS02006248 CONDUIT    421.56     0  02:05      1.36    2.31    1.00
  WS02006251WS02006249 CONDUIT    459.02     0  00:00      1.99    1.32    1.00
  WS02006252WS02006251 CONDUIT    406.53     0  02:03     24.61    1.49    1.00
  WS02006256WS02006235 CONDUIT    288.91     0  00:00      4.23    3.06    1.00
  WSF200WS02003060     CONDUIT    535.59     0  03:12      2.06    0.12    0.28
  YS02001580YS02001583 CONDUIT     75.18     0  02:01      0.55    0.29    1.00
  YS02001583YS02001586 CONDUIT    131.99     0  02:01      0.55    0.20    1.00
  YS02001586YS02001590 CONDUIT    317.97     0  02:22      1.25    0.56    1.00
  YS02001590YS02001593 CONDUIT    318.00     0  02:17      1.12    2.00    1.00
  YS02001593YS02001596 CONDUIT    318.13     0  02:11      1.72    0.50    1.00
  YS02001596YS02001600 CONDUIT    318.07     0  02:35      1.26    0.62    1.00
  YS02001600YS02001601 CONDUIT    317.98     0  02:20      1.12    0.55    1.00
  YS02001601YS02001602 CONDUIT    502.02     0  02:01      1.78    1.81    1.00
  YS02001602YS02001605 CONDUIT    501.83     0  02:01      1.77   10.62    1.00
  YS02001605YS02001607 CONDUIT    501.64     0  02:01      1.77    2.75    1.00
  YS02001607YS02001610 CONDUIT    499.42     0  02:00      0.64    0.47    1.00
  YS02001610YS02001613 CONDUIT    498.40     0  02:01      0.63    0.57    1.00
  YS02001613YS02001616 CONDUIT    501.23     0  02:00      0.64    0.43    1.00
  YS02001616YS02001619 CONDUIT    495.41     0  02:01      0.66    0.86    1.00
  YS02001619YS02001622 CONDUIT    958.63     0  02:14      1.22    1.41    1.00
  YS02001622YS02001625 CONDUIT    959.05     0  02:14      1.22    0.51    1.00
  YS02001625YS02001629 CONDUIT    914.54     0  02:04      1.16    0.43    1.00
  YS02001629YS02163301 CONDUIT    915.12     0  02:04      1.17    1.13    1.00
  YS02001633YS02163601 CONDUIT   1312.43     0  02:04      1.67    1.38    1.00
  YS02001641YS02001644 CONDUIT   1314.10     0  02:05      1.67    4.25    1.00
  YS02001644YS02001647 CONDUIT   1686.41     0  02:05      2.16    0.99    1.00
  YS02001647YS02001649 CONDUIT   1705.33     0  02:05      2.29    0.90    1.00
  YS02001649YS02001757 CONDUIT   1799.40     0  02:03      2.37    1.09    1.00
  YS02001652YS02001649 CONDUIT    916.86     0  02:13      1.17    0.45    1.00
  YS02001655YS02001652 CONDUIT    916.42     0  02:13      1.28    0.45    1.00
  YS02001658YS02001655 CONDUIT    916.24     0  02:13      1.85    0.39    1.00
  YS02001661YS02001658 CONDUIT    916.56     0  02:13      2.21    0.36    1.00
  YS02001664YS02001661 CONDUIT    915.48     0  02:13      2.14    0.29    0.79
  YS02001745YS02001748 CONDUIT    577.41     0  02:13      2.05    0.22    0.92
  YS02001748YS02001751 CONDUIT    577.64     0  02:13      1.61    0.29    1.00
  YS02001751YS02001754 CONDUIT    577.73     0  02:13      1.41    0.28    1.00
  YS02001754YS02001757 CONDUIT    578.69     0  02:13      0.74    0.23    1.00
  YS02001757CaochengTiaoxuchi CONDUIT   3076.31     0  02:12      3.92    1.33    1.00
  YS02001759YS02001757 CONDUIT   1280.94     0  02:11      1.63    0.91    1.00
  YS02001762YS02001759 CONDUIT    691.76     0  02:09      0.88    0.80    1.00
  YS02001765YS02001762 CONDUIT    690.85     0  02:09      0.88    0.65    1.00
  YS02001767YS02001765 CONDUIT    691.16     0  02:09      0.88    0.87    1.00
  YS02001770YS02001767 CONDUIT    690.34     0  02:09      0.88    2.73    1.00
  YS02001774YS02001770 CONDUIT    631.80     0  02:13      0.80    0.40    1.00
  YS02001779YS02001774 CONDUIT    631.55     0  02:13      0.80    0.32    1.00
  YS02001783YS02001784 CONDUIT   1164.61     0  02:11      2.32    1.61    1.00
  YS02001784YS02001785 CONDUIT   1165.28     0  02:11      2.32    2.71    1.00
  YS02001786YS02001788 CONDUIT   1167.57     0  02:11      2.48    2.25    0.89
  YS02001788YS02001790 CONDUIT   1173.27     0  02:13      2.71    0.86    0.84
  YS02001790YS02001791 CONDUIT   1297.19     0  02:12      3.45    1.41    0.71
  YS02001791YS02001793 CONDUIT   1249.84     0  02:15      6.49    0.54    0.45
  YS02001793JiankangQianchi CONDUIT   1227.97     0  02:14      2.41    0.10    0.65
  YS02001882YS02001884 CONDUIT     30.11     0  02:03      0.13    0.03    1.00
  YS02001884YS02001887 CONDUIT     56.94     0  02:03      0.09    0.08    1.00
  YS02001887YS02001890 CONDUIT    851.00     0  02:13      1.08    1.46    1.00
  YS02001890YS02001895 CONDUIT    517.83     0  02:14      0.66    0.24    1.00
  YS02001895YS02001898 CONDUIT    517.67     0  02:14      0.66    0.90    1.00
  YS02001898YS02001901 CONDUIT    517.53     0  02:17      0.66    0.33    1.00
  YS02001901YS02001904 CONDUIT    517.39     0  02:14      0.66    0.80    1.00
  YS02001904YS02001907 CONDUIT    517.45     0  02:14      0.66    0.18    1.00
  YS02001907YS02006553 CONDUIT    800.24     0  02:29      0.89    0.94    1.00
  YS02001910YS02001907 CONDUIT   1474.24     0  02:13      1.88    0.83    1.00
  YS02001915YS02001910 CONDUIT   1473.86     0  02:13      1.88    0.73    1.00
  YS02001918YS02001915 CONDUIT    493.25     0  02:13      0.63    0.27    1.00
  YS02001920YS02001918 CONDUIT    493.28     0  02:13      0.64    0.48    1.00
  YS02001923YS02001920 CONDUIT    490.73     0  02:13      0.69    0.22    1.00
  YS02001926YS02001923 CONDUIT    489.66     0  02:13      0.95    0.70    1.00
  YS02001929YS02001926 CONDUIT    488.52     0  02:13      1.09    0.23    1.00
  YS02006553YS02006556 CONDUIT    800.42     0  02:29      1.02    0.68    1.00
  YS02006556YS02006558 CONDUIT    802.16     0  02:29      1.02    0.63    1.00
  YS02006558YS02006561 CONDUIT   1164.72     0  02:11      4.12    2.57    1.00
  YS02006561YS02001783 CONDUIT   1163.97     0  02:11      2.32    0.60    1.00
  YS02163301YS02001633 CONDUIT    915.76     0  02:04      1.17    0.86    1.00
  YS02163601YS02164001 CONDUIT   1312.84     0  02:04      1.67    1.16    1.00
  YS02164001YS02001641 CONDUIT   1315.68     0  02:05      1.68    1.80    1.00
  CC-R1                PUMP       683.00     0  00:00              1.00
  CC-R2                PUMP       683.00     0  00:00              1.00
  CC-S1                PUMP       200.00     0  00:00              1.00
  CC-S2                PUMP       200.00     0  00:00              1.00
  JK-R1                PUMP      1000.00     0  00:00              1.00
  JK-R2                PUMP      1000.00     0  00:00              1.00
  JK-S                 PUMP       300.00     0  00:00              1.00
  
  
  ***************************
  Flow Classification Summary
  ***************************
  
  -------------------------------------------------------------------------------------
                      Adjusted    ---------- Fraction of Time in Flow Class ---------- 
                       /Actual         Up    Down  Sub   Sup   Up    Down  Norm  Inlet 
  Conduit               Length    Dry  Dry   Dry   Crit  Crit  Crit  Crit  Ltd   Ctrl  
  -------------------------------------------------------------------------------------
  1                       1.00   0.00  0.00  0.00  0.00  1.00  0.00  0.00  0.42  0.00
  WS02003060WS02003069    1.00   0.00  0.00  0.00  0.97  0.03  0.00  0.00  0.70  0.00
  WS02003066WSF200        1.00   0.13  0.00  0.00  0.00  0.87  0.00  0.00  0.75  0.00
  WS02003067WS02003066    1.00   0.10  0.02  0.00  0.88  0.00  0.00  0.00  0.00  0.00
  WS02003069WS02003072    1.00   0.00  0.00  0.00  0.99  0.01  0.00  0.00  0.74  0.00
  WS02003072WS02003073    1.00   0.00  0.00  0.00  0.00  0.00  0.00  1.00  0.00  0.00
  WS02004401WS02004402    1.00   0.02  0.00  0.00  0.98  0.00  0.00  0.00  0.00  0.00
  WS02004402WS02004403    1.00   0.02  0.00  0.00  0.97  0.00  0.00  0.00  0.00  0.00
  WS02004403WS02004404    1.00   0.00  0.03  0.00  0.97  0.00  0.00  0.00  0.00  0.00
  WS02004404WS02004405    1.00   0.00  0.00  0.00  1.00  0.00  0.00  0.00  0.01  0.00
  WS02004405WS02004406    1.00   0.00  0.00  0.00  1.00  0.00  0.00  0.00  0.00  0.00
  WS02004406WS02004407    1.00   0.00  0.05  0.00  0.95  0.00  0.00  0.00  0.00  0.00
  WS02004407WS02004409    1.00   0.05  0.00  0.00  0.94  0.01  0.00  0.00  0.95  0.00
  WS02004409WS02004410    1.00   0.05  0.00  0.00  0.95  0.00  0.00  0.00  0.03  0.00
  WS02004410WS02004411    1.00   0.05  0.00  0.00  0.95  0.00  0.00  0.00  0.01  0.00
  WS02004411WS02004412    1.00   0.05  0.00  0.00  0.95  0.00  0.00  0.00  0.00  0.00
  WS02004412WS02004413    1.00   0.05  0.00  0.00  0.94  0.00  0.00  0.00  0.01  0.00
  WS02004413WS02003067    1.00   0.06  0.04  0.00  0.00  0.00  0.90  0.00  0.00  0.00
  WS02006109WS02006110    1.00   0.00  0.01  0.00  0.98  0.00  0.01  0.00  0.00  0.00
  WS02006110WS02006113    1.00   0.01  0.01  0.00  0.98  0.00  0.00  0.00  0.00  0.00
  WS02006111WS02006112    1.00   0.02  0.00  0.00  0.98  0.00  0.00  0.00  0.98  0.00
  WS02006112WS02006115    1.00   0.02  0.00  0.00  0.97  0.00  0.00  0.00  0.00  0.00
  WS02006113WS02006111    1.00   0.02  0.00  0.00  0.00  0.98  0.00  0.00  0.12  0.00
  WS02006115WS02006116    1.00   0.02  0.00  0.00  0.97  0.00  0.00  0.01  0.00  0.00
  WS02006116WS02004401    1.00   0.02  0.00  0.00  0.98  0.00  0.00  0.00  0.00  0.00
  WS02006228WS02006109    1.00   0.00  0.00  0.00  1.00  0.00  0.00  0.00  0.00  0.00
  WS02006229WS02006228    1.00   0.00  0.00  0.00  0.99  0.00  0.00  0.01  0.00  0.00
  WS02006230WS02006229    1.00   0.00  0.00  0.00  0.99  0.00  0.00  0.01  0.01  0.00
  WS02006231WS02006230    1.00   0.00  0.00  0.00  0.26  0.00  0.74  0.00  0.00  0.00
  WS02006232WS02006231    1.00   0.00  0.00  0.00  0.98  0.00  0.01  0.00  0.00  0.00
  WS02006234WS02006232    1.00   0.00  0.00  0.00  1.00  0.00  0.00  0.00  0.13  0.00
  WS02006235WS02006234    1.00   0.00  0.00  0.00  0.79  0.00  0.21  0.00  0.00  0.00
  WS02006238WS02006235    1.00   0.00  0.00  0.00  1.00  0.00  0.00  0.00  0.00  0.00
  WS02006239WS02006238    1.00   0.00  0.00  0.00  1.00  0.00  0.00  0.00  0.32  0.00
  WS02006240WS02006239    1.00   0.00  0.00  0.00  0.61  0.00  0.00  0.39  0.03  0.00
  WS02006242WS02006240    1.00   0.00  0.00  0.00  0.99  0.00  0.01  0.00  0.00  0.00
  WS02006243WS02006242    1.00   0.00  0.00  0.00  0.99  0.00  0.00  0.01  0.54  0.00
  WS02006245WS02006243    1.00   0.00  0.00  0.00  0.68  0.00  0.00  0.31  0.02  0.00
  WS02006247WS02006245    1.00   0.00  0.00  0.00  0.99  0.00  0.00  0.01  0.00  0.00
  WS02006248WS02006247    1.00   0.00  0.00  0.00  0.99  0.00  0.00  0.01  0.27  0.00
  WS02006249WS02006248    1.00   0.00  0.00  0.00  0.46  0.00  0.54  0.00  0.00  0.00
  WS02006251WS02006249    1.00   0.00  0.00  0.00  1.00  0.00  0.00  0.00  0.56  0.00
  WS02006252WS02006251    1.00   0.00  0.59  0.00  0.14  0.00  0.27  0.00  0.00  0.00
  WS02006256WS02006235    1.00   0.00  0.00  0.00  1.00  0.00  0.00  0.00  0.00  0.00
  WSF200WS02003060        1.00   0.00  0.13  0.00  0.35  0.52  0.00  0.00  0.49  0.00
  YS02001580YS02001583    1.00   0.25  0.55  0.00  0.20  0.00  0.00  0.00  0.64  0.00
  YS02001583YS02001586    1.00   0.41  0.33  0.00  0.25  0.00  0.00  0.00  0.64  0.00
  YS02001586YS02001590    1.00   0.13  0.00  0.00  0.44  0.04  0.00  0.39  0.37  0.00
  YS02001590YS02001593    1.00   0.13  0.01  0.00  0.13  0.00  0.74  0.00  0.00  0.00
  YS02001593YS02001596    1.00   0.13  0.00  0.00  0.15  0.01  0.00  0.71  0.02  0.00
  YS02001596YS02001600    1.00   0.14  0.00  0.00  0.21  0.01  0.00  0.65  0.04  0.00
  YS02001600YS02001601    1.00   0.13  0.01  0.00  0.86  0.00  0.00  0.00  0.60  0.00
  YS02001601YS02001602    1.00   0.13  0.01  0.00  0.87  0.00  0.00  0.00  0.00  0.00
  YS02001602YS02001605    1.00   0.13  0.00  0.00  0.86  0.00  0.00  0.00  0.00  0.00
  YS02001605YS02001607    1.00   0.14  0.00  0.00  0.86  0.00  0.00  0.00  0.00  0.00
  YS02001607YS02001610    1.00   0.13  0.01  0.00  0.86  0.00  0.00  0.00  0.01  0.00
  YS02001610YS02001613    1.00   0.13  0.00  0.00  0.87  0.00  0.00  0.00  0.00  0.00
  YS02001613YS02001616    1.00   0.13  0.00  0.00  0.87  0.00  0.00  0.00  0.00  0.00
  YS02001616YS02001619    1.00   0.13  0.00  0.00  0.87  0.00  0.00  0.00  0.00  0.00
  YS02001619YS02001622    1.00   0.13  0.00  0.00  0.87  0.00  0.00  0.00  0.28  0.00
  YS02001622YS02001625    1.00   0.13  0.00  0.00  0.87  0.00  0.00  0.00  0.04  0.00
  YS02001625YS02001629    1.00   0.13  0.05  0.00  0.17  0.00  0.65  0.00  0.00  0.00
  YS02001629YS02163301    1.00   0.15  0.01  0.00  0.84  0.00  0.00  0.00  0.00  0.00
  YS02001633YS02163601    1.00   0.00  0.01  0.00  0.99  0.00  0.00  0.00  0.15  0.00
  YS02001641YS02001644    1.00   0.00  0.01  0.00  0.99  0.00  0.00  0.00  0.00  0.00
  YS02001644YS02001647    1.00   0.00  0.17  0.00  0.83  0.00  0.00  0.00  0.00  0.00
  YS02001647YS02001649    1.00   0.00  0.17  0.00  0.55  0.28  0.00  0.00  0.55  0.00
  YS02001649YS02001757    1.00   0.00  0.00  0.00  0.84  0.16  0.00  0.00  0.44  0.00
  YS02001652YS02001649    1.00   0.00  0.00  0.00  0.97  0.03  0.00  0.00  0.73  0.00
  YS02001655YS02001652    1.00   0.00  0.00  0.00  0.20  0.01  0.00  0.79  0.05  0.00
  YS02001658YS02001655    1.00   0.00  0.14  0.00  0.67  0.19  0.00  0.00  0.68  0.00
  YS02001661YS02001658    1.00   0.14  0.00  0.00  0.51  0.35  0.00  0.00  0.69  0.00
  YS02001664YS02001661    1.00   0.13  0.00  0.00  0.78  0.10  0.00  0.00  0.85  0.00
  YS02001745YS02001748    1.00   0.00  0.00  0.00  0.11  0.01  0.00  0.88  0.05  0.00
  YS02001748YS02001751    1.00   0.00  0.00  0.00  0.84  0.16  0.00  0.00  0.74  0.00
  YS02001751YS02001754    1.00   0.00  0.00  0.00  0.18  0.00  0.00  0.81  0.03  0.00
  YS02001754YS02001757    1.00   0.00  0.00  0.00  1.00  0.00  0.00  0.00  0.80  0.00
  YS02001757CaochengTiaoxuchi    1.00   0.00  0.00  0.00  1.00  0.00  0.00  0.00  0.61  0.00
  YS02001759YS02001757    1.00   0.00  0.00  0.00  1.00  0.00  0.00  0.00  0.51  0.00
  YS02001762YS02001759    1.00   0.00  0.00  0.00  1.00  0.00  0.00  0.00  0.05  0.00
  YS02001765YS02001762    1.00   0.00  0.00  0.00  1.00  0.00  0.00  0.00  0.65  0.00
  YS02001767YS02001765    1.00   0.00  0.00  0.00  1.00  0.00  0.00  0.00  0.01  0.00
  YS02001770YS02001767    1.00   0.00  0.00  0.00  1.00  0.00  0.00  0.00  0.00  0.00
  YS02001774YS02001770    1.00   0.00  0.13  0.00  0.70  0.00  0.16  0.00  0.03  0.00
  YS02001779YS02001774    1.00   0.00  0.00  0.00  1.00  0.00  0.00  0.00  0.75  0.00
  YS02001783YS02001784    1.00   0.00  0.18  0.00  0.82  0.00  0.00  0.00  0.55  0.00
  YS02001784YS02001785    1.00   0.00  0.00  0.00  1.00  0.00  0.00  0.00  0.17  0.00
  YS02001786YS02001788    1.00   0.00  0.00  0.00  0.79  0.21  0.00  0.00  0.00  0.00
  YS02001788YS02001790    1.00   0.00  0.00  0.00  0.22  0.78  0.00  0.00  0.80  0.00
  YS02001790YS02001791    1.00   0.00  0.00  0.00  0.01  0.99  0.00  0.00  0.16  0.00
  YS02001791YS02001793    1.00   0.00  0.00  0.00  0.00  1.00  0.00  0.00  0.01  0.00
  YS02001793JiankangQianchi    1.00   0.00  0.00  0.00  0.99  0.01  0.00  0.00  0.94  0.00
  YS02001882YS02001884    1.00   0.15  0.01  0.00  0.84  0.00  0.00  0.00  0.00  0.00
  YS02001884YS02001887    1.00   0.06  0.05  0.00  0.89  0.00  0.00  0.00  0.00  0.00
  YS02001887YS02001890    1.00   0.00  0.00  0.00  0.97  0.00  0.03  0.00  0.00  0.00
  YS02001890YS02001895    1.00   0.00  0.16  0.00  0.84  0.00  0.00  0.00  0.00  0.00
  YS02001895YS02001898    1.00   0.16  0.00  0.00  0.82  0.00  0.02  0.00  0.00  0.00
  YS02001898YS02001901    1.00   0.16  0.00  0.00  0.84  0.00  0.00  0.00  0.01  0.00
  YS02001901YS02001904    1.00   0.16  0.00  0.00  0.84  0.00  0.00  0.00  0.00  0.00
  YS02001904YS02001907    1.00   0.00  0.16  0.00  0.84  0.00  0.00  0.00  0.00  0.00
  YS02001907YS02006553    1.00   0.00  0.02  0.00  0.98  0.00  0.00  0.00  0.00  0.00
  YS02001910YS02001907    1.00   0.00  0.00  0.00  0.97  0.00  0.00  0.03  0.12  0.00
  YS02001915YS02001910    1.00   0.00  0.00  0.00  0.97  0.03  0.00  0.00  0.15  0.00
  YS02001918YS02001915    1.00   0.00  0.01  0.00  0.98  0.02  0.00  0.00  0.74  0.00
  YS02001920YS02001918    1.00   0.00  0.01  0.00  0.99  0.00  0.00  0.00  0.00  0.00
  YS02001923YS02001920    1.00   0.00  0.00  0.00  1.00  0.00  0.00  0.00  0.92  0.00
  YS02001926YS02001923    1.00   0.00  0.07  0.00  0.06  0.00  0.86  0.00  0.00  0.00
  YS02001929YS02001926    1.00   0.00  0.13  0.00  0.87  0.00  0.00  0.00  0.82  0.00
  YS02006553YS02006556    1.00   0.01  0.00  0.00  0.99  0.00  0.00  0.00  0.03  0.00
  YS02006556YS02006558    1.00   0.00  0.00  0.00  1.00  0.00  0.00  0.00  0.00  0.00
  YS02006558YS02006561    1.00   0.18  0.00  0.00  0.06  0.76  0.00  0.00  0.18  0.00
  YS02006561YS02001783    1.00   0.18  0.00  0.00  0.09  0.73  0.00  0.00  0.68  0.00
  YS02163301YS02001633    1.00   0.00  0.15  0.00  0.85  0.00  0.00  0.00  0.00  0.00
  YS02163601YS02164001    1.00   0.00  0.08  0.00  0.92  0.00  0.00  0.00  0.00  0.00
  YS02164001YS02001641    1.00   0.01  0.07  0.00  0.92  0.00  0.00  0.00  0.05  0.00
  
  
  *************************
  Conduit Surcharge Summary
  *************************
  
  ----------------------------------------------------------------------------
                                                           Hours        Hours 
                         --------- Hours Full --------   Above Full   Capacity
  Conduit                Both Ends  Upstream  Dnstream   Normal Flow   Limited
  ----------------------------------------------------------------------------
  WS02003072WS02003073        0.01      0.01      0.01      1.47         0.01
  WS02004404WS02004405        0.01      0.01      0.01      3.41         0.01
  WS02004405WS02004406        0.01      0.01      0.01      0.87         0.01
  WS02006109WS02006110        0.78      0.78      2.00      0.98         0.01
  WS02006110WS02006113        0.01      0.01      1.99      0.01         0.01
  WS02006111WS02006112        0.01      0.01      2.11      0.01         0.01
  WS02006112WS02006115        0.01      0.01      0.95      0.01         0.01
  WS02006228WS02006109        1.98      2.00      1.98      2.35         1.97
  WS02006229WS02006228        1.97      1.98      1.97      2.11         1.95
  WS02006230WS02006229        2.02      2.07      2.02      4.04         2.02
  WS02006231WS02006230        0.80      0.80      1.10      3.65         0.01
  WS02006232WS02006231        1.01      1.01      1.99      1.10         0.01
  WS02006234WS02006232        1.90      1.90      1.99      1.08         1.07
  WS02006235WS02006234        1.41      1.42      1.91      3.48         0.03
  WS02006238WS02006235        1.93      1.93      1.99      0.01         0.01
  WS02006239WS02006238        1.97      1.99      1.97      2.00         1.73
  WS02006240WS02006239        1.95      1.97      1.95      2.00         1.65
  WS02006242WS02006240        1.97      1.97      1.99      2.10         0.01
  WS02006243WS02006242        1.97      1.97      1.99      0.01         0.07
  WS02006245WS02006243        1.96      1.96      1.97      1.14         1.15
  WS02006247WS02006245        1.96      1.96      1.96      3.23         1.93
  WS02006248WS02006247        1.95      1.95      1.96      0.01         0.08
  WS02006249WS02006248        1.95      1.95      1.95      3.17         0.01
  WS02006251WS02006249        1.95      1.95      1.95      2.04         1.85
  WS02006252WS02006251        2.09      2.09      2.09      2.09         0.01
  WS02006256WS02006235        3.48      3.54      5.36      1.44         0.01
  YS02001580YS02001583        0.65      0.65      0.70      0.01         0.01
  YS02001583YS02001586        0.65      0.65      0.79      0.01         0.01
  YS02001586YS02001590        0.80      0.80      0.87      0.01         0.01
  YS02001590YS02001593        0.88      0.88      0.89      0.91         0.01
  YS02001593YS02001596        0.89      0.89      1.00      0.01         0.01
  YS02001596YS02001600        1.06      1.06      1.17      0.01         0.01
  YS02001600YS02001601        1.22      1.22      1.49      0.01         0.01
  YS02001601YS02001602        1.39      1.39      1.53      1.16         0.01
  YS02001602YS02001605        1.34      1.34      1.39      2.35         0.01
  YS02001605YS02001607        1.30      1.34      1.30      1.44         1.30
  YS02001607YS02001610        0.87      0.87      0.90      0.01         0.01
  YS02001610YS02001613        0.86      0.86      0.90      0.01         0.01
  YS02001613YS02001616        0.82      0.82      0.86      0.01         0.01
  YS02001616YS02001619        0.80      0.80      0.82      0.01         0.02
  YS02001619YS02001622        0.80      0.80      0.80      0.85         0.73
  YS02001622YS02001625        0.80      0.80      1.00      0.01         0.01
  YS02001625YS02001629        0.75      0.75      1.00      0.01         0.01
  YS02001629YS02163301        1.00      1.00      1.02      0.07         0.13
  YS02001633YS02163601        1.04      1.04      1.08      0.28         0.28
  YS02001641YS02001644        0.95      0.98      0.95      1.57         0.93
  YS02001644YS02001647        0.72      0.72      0.95      0.01         0.01
  YS02001647YS02001649        0.72      0.72      0.87      0.01         0.01
  YS02001649YS02001757        0.87      0.87      0.94      0.07         0.04
  YS02001652YS02001649        0.69      0.69      0.87      0.01         0.01
  YS02001655YS02001652        0.50      0.50      0.67      0.01         0.01
  YS02001658YS02001655        0.27      0.27      0.50      0.01         0.01
  YS02001661YS02001658        0.05      0.05      0.27      0.01         0.01
  YS02001664YS02001661        0.01      0.01      0.10      0.01         0.01
  YS02001745YS02001748        0.01      0.01      0.21      0.01         0.01
  YS02001748YS02001751        0.25      0.25      0.38      0.01         0.01
  YS02001751YS02001754        0.38      0.38      0.58      0.01         0.01
  YS02001754YS02001757        0.63      0.63      0.94      0.01         0.01
  YS02001757CaochengTiaoxuchi        0.94      0.94      1.93      0.34         0.34
  YS02001759YS02001757        0.85      0.85      0.94      0.01         0.01
  YS02001762YS02001759        0.82      0.82      0.85      0.01         0.02
  YS02001765YS02001762        0.77      0.77      0.82      0.01         0.01
  YS02001767YS02001765        0.73      0.73      0.77      0.01         0.02
  YS02001770YS02001767        0.73      0.73      0.73      0.54         0.47
  YS02001774YS02001770        0.71      0.71      0.80      0.01         0.01
  YS02001779YS02001774        0.57      0.57      0.80      0.01         0.01
  YS02001783YS02001784        0.54      0.56      0.54      0.73         0.54
  YS02001784YS02001785        0.42      0.54      0.42      0.99         0.42
  YS02001786YS02001788        0.01      0.42      0.01      0.86         0.01
  YS02001790YS02001791        0.01      0.01      0.01      0.52         0.01
  YS02001793JiankangQianchi        0.01      0.01      7.70      0.01         0.01
  YS02001882YS02001884        0.50      0.50      0.51      0.01         0.01
  YS02001884YS02001887        0.54      0.54      0.55      0.01         0.01
  YS02001887YS02001890        0.57      0.57      0.58      0.12         0.01
  YS02001890YS02001895        0.49      0.49      0.60      0.01         0.01
  YS02001895YS02001898        0.49      0.49      0.49      0.01         0.01
  YS02001898YS02001901        0.50      0.50      0.54      0.01         0.01
  YS02001901YS02001904        0.53      0.53      0.54      0.01         0.01
  YS02001904YS02001907        0.53      0.53      0.82      0.01         0.01
  YS02001907YS02006553        1.01      1.01      1.08      0.01         0.01
  YS02001910YS02001907        0.59      0.59      0.81      0.01         0.01
  YS02001915YS02001910        0.50      0.50      0.59      0.01         0.01
  YS02001918YS02001915        0.41      0.41      0.50      0.01         0.01
  YS02001920YS02001918        0.41      0.41      0.42      0.01         0.01
  YS02001923YS02001920        0.37      0.37      0.42      0.01         0.01
  YS02001926YS02001923        0.12      0.13      0.15      0.01         0.01
  YS02001929YS02001926        0.01      0.01      0.15      0.01         0.01
  YS02006553YS02006556        0.70      0.70      0.83      0.01         0.01
  YS02006556YS02006558        0.76      0.76      0.84      0.01         0.01
  YS02006558YS02006561        0.44      0.68      0.44      0.95         0.44
  YS02006561YS02001783        0.38      0.38      0.56      0.01         0.01
  YS02163301YS02001633        1.02      1.02      1.06      0.01         0.01
  YS02163601YS02164001        0.98      0.98      1.08      0.08         0.01
  YS02164001YS02001641        0.98      0.98      0.98      0.69         0.60
  
  
  ***************
  Pumping Summary
  ***************
  
  ---------------------------------------------------------------------------------------------------------
                                                  Min       Avg       Max     Total     Power    % Time Off
                        Percent   Number of      Flow      Flow      Flow    Volume     Usage    Pump Curve
  Pump                 Utilized   Start-Ups       LPS       LPS       LPS  10^6 ltr     Kw-hr    Low   High
  ---------------------------------------------------------------------------------------------------------
  CC-R1                   19.44           2      0.00    683.00    683.00     3.824     72.53    0.0    9.6
  CC-R2                   15.21           2      0.00    683.00    683.00     2.992     57.22    0.0   12.3
  CC-S1                   41.29           5      0.00    200.00    200.00     2.378     13.43    0.0    0.0
  CC-S2                   26.09           2      0.00    200.00    200.00     1.503      8.15    0.0    0.0
  JK-R1                    8.94          14      0.00   1000.00   1000.00     2.574     30.59    0.0    0.0
  JK-R2                    0.16           1      0.00   1000.00   1000.00     0.047      0.36    0.0    0.0
  JK-S                    17.93          22      0.00    300.00    300.00     1.549     20.21    0.0    0.0
  

  Analysis begun on:  Thu Apr 24 00:07:41 2025
  Analysis ended on:  Thu Apr 24 00:07:42 2025
  Total elapsed time: 00:00:01