
  EPA STORM WATER MANAGEMENT MODEL - VERSION 5.2 (Build 5.2.4)
  PYSWMM TOOLKIT API - VERSION v1.0 (2023-11-27)
  ------------------------------------------------------------

  WARNING 04: minimum elevation drop used for Conduit WS02004404WS02004405
  WARNING 03: negative offset ignored for Link YS02001904YS02001907
  
  ****************
  Analysis Options
  ****************
  Flow Units ............... LPS
  Process Models:
    Rainfall/Runoff ........ YES
    RDII ................... NO
    Snowmelt ............... NO
    Groundwater ............ NO
    Flow Routing ........... YES
    Ponding Allowed ........ NO
    Water Quality .......... NO
  Infiltration Method ...... HORTON
  Flow Routing Method ...... DYNWAVE
  Surcharge Method ......... EXTRAN
  Starting Date ............ 08/28/2015 08:00:00
  Ending Date .............. 08/28/2015 16:00:00
  Antecedent Dry Days ...... 8.0
  Report Time Step ......... 00:01:00
  Wet Time Step ............ 00:01:00
  Dry Time Step ............ 00:01:00
  Routing Time Step ........ 30.00 sec
  Variable Time Step ....... YES
  Maximum Trials ........... 8
  Number of Threads ........ 4
  Head Tolerance ........... 0.001500 m
  
  
  **************************        Volume         Depth
  Runoff Quantity Continuity     hectare-m            mm
  **************************     ---------       -------
  Total Precipitation ......         2.995        90.301
  Evaporation Loss .........         0.000         0.000
  Infiltration Loss ........         0.106         3.201
  Surface Runoff ...........         2.857        86.119
  Final Storage ............         0.033         0.997
  Continuity Error (%) .....        -0.018
  
  
  **************************        Volume        Volume
  Flow Routing Continuity        hectare-m      10^6 ltr
  **************************     ---------     ---------
  Dry Weather Inflow .......         0.025         0.251
  Wet Weather Inflow .......         2.856        28.563
  Groundwater Inflow .......         0.000         0.000
  RDII Inflow ..............         0.000         0.000
  External Inflow ..........         0.083         0.834
  External Outflow .........         1.744        17.442
  Flooding Loss ............         1.186        11.865
  Evaporation Loss .........         0.000         0.000
  Exfiltration Loss ........         0.000         0.000
  Initial Stored Volume ....         0.243         2.431
  Final Stored Volume ......         0.281         2.811
  Continuity Error (%) .....        -0.123
  
  
  *************************
  Highest Continuity Errors
  *************************
  Node YS02001884 (4.72%)
  Node YS02001583 (-3.24%)
  
  
  ***************************
  Time-Step Critical Elements
  ***************************
  Link WS02006252WS02006251 (41.96%)
  Link WS02006238WS02006235 (10.86%)
  Link YS02001791YS02001793 (10.86%)
  Link WS02004404WS02004405 (10.41%)
  Link WS02006235WS02006234 (9.85%)
  
  
  ********************************
  Highest Flow Instability Indexes
  ********************************
  Link WS02006113WS02006111 (47)
  Link WS02006111WS02006112 (26)
  Link WS02006252WS02006251 (18)
  Link WS02006238WS02006235 (17)
  Link YS02001607YS02001610 (15)
  
  
  *********************************
  Most Frequent Nonconverging Nodes
  *********************************
  Node CC-1 (12.81%)
  Node CC-2 (12.81%)
  Node JK-1 (12.81%)
  Node JK-2 (12.81%)
  Node WSC (12.81%)
  
  
  *************************
  Routing Time Step Summary
  *************************
  Minimum Time Step           :     0.01 sec
  Average Time Step           :     2.04 sec
  Maximum Time Step           :     6.43 sec
  % of Time in Steady State   :     0.00
  Average Iterations per Step :     3.13
  % of Steps Not Converging   :    12.81
  Time Step Frequencies       :
     30.000 - 13.228 sec      :     0.00 %
     13.228 -  5.833 sec      :     7.50 %
      5.833 -  2.572 sec      :    21.77 %
      2.572 -  1.134 sec      :    21.76 %
      1.134 -  0.500 sec      :    48.97 %
  
  
  ***************************
  Subcatchment Runoff Summary
  ***************************
  
  ------------------------------------------------------------------------------------------------------------------------------
                            Total      Total      Total      Total     Imperv       Perv      Total       Total     Peak  Runoff
                           Precip      Runon       Evap      Infil     Runoff     Runoff     Runoff      Runoff   Runoff   Coeff
  Subcatchment                 mm         mm         mm         mm         mm         mm         mm    10^6 ltr      LPS
  ------------------------------------------------------------------------------------------------------------------------------
  sub60                     90.30       0.00       0.00       1.89      78.26       8.95      87.21        1.15   723.58   0.966
  sub61                     90.30       0.00       0.00       2.75      73.82      12.61      86.43        1.59  1007.38   0.957
  sub62                     90.30       0.00       0.00       1.26      81.79       5.97      87.76        2.40  1437.83   0.972
  sub63                     90.30       0.00       0.00       5.11      63.15      21.08      84.22        1.91  1172.03   0.933
  sub64                     90.30       0.00       0.00       2.58      75.55      10.97      86.52        2.08  1198.31   0.958
  sub65                     90.30       0.00       0.00       2.23      77.31       9.51      86.82        2.39  1345.27   0.961
  sub66                     90.30       0.00       0.00       6.40      63.03      19.79      82.83        3.86  1891.99   0.917
  sub67                     90.30       0.00       0.00       1.20      81.84       6.02      87.86        1.63  1064.16   0.973
  sub68                     90.30       0.00       0.00       2.28      76.47      10.37      86.84        2.39  1469.39   0.962
  sub69                     90.30       0.00       0.00       2.08      76.64      11.47      88.11        3.26  1789.44   0.976
  sub70                     90.30       0.00       0.00       7.00      59.43      23.70      83.13        2.40  1072.03   0.921
  sub71                     90.30       0.00       0.00       1.30      81.75       5.93      87.68        2.29  1292.71   0.971
  sub72                     90.30       0.00       0.00       1.16      82.57       5.17      87.74        1.21   637.98   0.972
  
  
  ******************
  Node Depth Summary
  ******************
  
  ---------------------------------------------------------------------------------
                                 Average  Maximum  Maximum  Time of Max    Reported
                                   Depth    Depth      HGL   Occurrence   Max Depth
  Node                 Type       Meters   Meters   Meters  days hr:min      Meters
  ---------------------------------------------------------------------------------
  WS02003060           JUNCTION     0.24     0.38     5.31     0  02:36        0.38
  WS02003066           JUNCTION     0.20     0.30     5.85     0  02:33        0.30
  WS02003067           JUNCTION     0.52     0.70     6.02     0  02:33        0.70
  WS02003069           JUNCTION     0.27     0.43     5.01     0  02:34        0.43
  WS02003072           JUNCTION     0.33     0.50     4.87     0  02:33        0.50
  WS02003073           JUNCTION     0.19     0.30     4.36     0  02:35        0.30
  WS02004401           JUNCTION     0.60     0.85     6.85     0  02:30        0.85
  WS02004402           JUNCTION     0.63     0.88     6.84     0  02:30        0.88
  WS02004403           JUNCTION     0.65     0.89     6.82     0  02:31        0.89
  WS02004404           JUNCTION     0.73     0.96     6.81     0  02:31        0.96
  WS02004405           JUNCTION     0.73     0.95     6.80     0  02:31        0.95
  WS02004406           JUNCTION     0.74     0.96     6.79     0  02:31        0.96
  WS02004407           JUNCTION     0.18     0.30     6.61     0  02:31        0.29
  WS02004409           JUNCTION     0.41     0.67     6.44     0  02:31        0.67
  WS02004410           JUNCTION     0.43     0.68     6.40     0  02:32        0.68
  WS02004411           JUNCTION     0.45     0.69     6.37     0  02:32        0.69
  WS02004412           JUNCTION     0.47     0.70     6.34     0  02:32        0.70
  WS02004413           JUNCTION     0.63     0.86     6.33     0  02:32        0.86
  WS02006109           JUNCTION     0.67     1.26     7.88     0  02:11        1.16
  WS02006110           JUNCTION     0.67     1.65     8.24     0  02:11        1.10
  WS02006111           JUNCTION     0.18     0.29     7.00     0  03:27        0.29
  WS02006112           JUNCTION     0.76     1.08     6.97     0  02:52        1.05
  WS02006113           JUNCTION     0.28     0.46     7.36     0  03:27        0.46
  WS02006115           JUNCTION     0.49     0.75     6.89     0  02:30        0.75
  WS02006116           JUNCTION     0.57     0.83     6.87     0  02:30        0.83
  WS02006228           JUNCTION     0.66     1.31     7.96     0  02:21        1.15
  WS02006229           JUNCTION     0.64     1.36     8.05     0  02:21        1.11
  WS02006230           JUNCTION     0.64     1.63     8.37     0  02:21        1.20
  WS02006231           JUNCTION     0.44     1.44     8.56     0  02:20        1.41
  WS02006232           JUNCTION     0.58     1.91     8.95     0  02:21        1.91
  WS02006234           JUNCTION     0.51     1.96     9.12     0  02:21        1.96
  WS02006235           JUNCTION     0.55     2.00     9.16     0  02:21        2.00
  WS02006238           JUNCTION     0.57     2.15     9.29     0  02:21        2.15
  WS02006239           JUNCTION     0.54     2.01     9.21     0  03:27        2.01
  WS02006240           JUNCTION     0.51     1.91     9.20     0  03:27        1.91
  WS02006242           JUNCTION     0.58     1.55     8.82     0  02:20        1.55
  WS02006243           JUNCTION     0.49     1.48     8.90     0  03:27        1.48
  WS02006245           JUNCTION     0.49     1.53     9.01     0  03:28        1.53
  WS02006247           JUNCTION     0.51     1.44     8.94     0  03:28        1.44
  WS02006248           JUNCTION     0.47     1.10     8.69     0  01:57        1.10
  WS02006249           JUNCTION     0.51     1.09     8.69     0  01:57        1.09
  WS02006251           JUNCTION     0.51     2.07     9.74     0  01:58        1.29
  WS02006252           JUNCTION     0.37     1.50     9.74     0  00:00        0.94
  WS02006256           JUNCTION     1.04     2.35     9.28     0  00:00        2.35
  WSF200               JUNCTION     0.17     0.29     5.52     0  02:45        0.29
  YS02001580           JUNCTION     0.11     0.95     9.49     0  02:01        0.88
  YS02001583           JUNCTION     0.15     0.91     9.40     0  02:01        0.83
  YS02001586           JUNCTION     0.23     1.13     9.30     0  02:01        1.13
  YS02001590           JUNCTION     0.33     1.40     9.26     0  02:01        1.38
  YS02001593           JUNCTION     0.26     1.32     9.19     0  02:01        1.31
  YS02001596           JUNCTION     0.37     1.77     9.19     0  02:21        1.77
  YS02001600           JUNCTION     0.44     1.87     9.00     0  02:01        1.87
  YS02001601           JUNCTION     0.63     2.06     8.90     0  02:01        2.06
  YS02001602           JUNCTION     0.53     1.87     8.77     0  02:05        1.87
  YS02001605           JUNCTION     0.50     1.78     8.68     0  02:21        1.78
  YS02001607           JUNCTION     0.49     1.66     8.50     0  02:42        1.66
  YS02001610           JUNCTION     0.53     1.68     8.48     0  02:06        1.68
  YS02001613           JUNCTION     0.49     1.70     8.54     0  02:21        1.70
  YS02001616           JUNCTION     0.42     1.61     8.52     0  02:22        1.61
  YS02001619           JUNCTION     0.40     1.61     8.54     0  02:21        1.61
  YS02001622           JUNCTION     0.39     1.60     8.50     0  02:29        1.60
  YS02001625           JUNCTION     0.65     1.78     8.38     0  02:06        1.78
  YS02001629           JUNCTION     0.52     1.85     8.40     0  02:10        1.85
  YS02001633           JUNCTION     0.60     2.08     8.53     0  02:21        2.08
  YS02001641           JUNCTION     0.58     1.98     8.42     0  02:42        1.95
  YS02001644           JUNCTION     0.58     1.92     8.35     0  02:11        1.92
  YS02001647           JUNCTION     0.37     1.77     8.38     0  02:21        1.76
  YS02001649           JUNCTION     0.42     2.01     8.40     0  02:23        2.00
  YS02001652           JUNCTION     0.31     1.99     8.58     0  02:21        1.99
  YS02001655           JUNCTION     0.24     1.87     8.72     0  02:21        1.87
  YS02001658           JUNCTION     0.18     1.69     8.83     0  02:11        1.53
  YS02001661           JUNCTION     0.19     1.30     8.70     0  02:18        1.27
  YS02001664           JUNCTION     0.07     0.78     8.70     0  02:24        0.76
  YS02001745           JUNCTION     0.10     0.96     8.48     0  02:24        0.96
  YS02001748           JUNCTION     0.17     1.38     8.45     0  02:24        1.37
  YS02001751           JUNCTION     0.21     1.55     8.43     0  02:24        1.54
  YS02001754           JUNCTION     0.28     1.79     8.40     0  02:23        1.78
  YS02001757           JUNCTION     0.46     2.13     8.39     0  02:21        2.13
  YS02001759           JUNCTION     0.39     2.11     8.47     0  02:23        2.11
  YS02001762           JUNCTION     0.38     2.06     8.46     0  02:23        2.06
  YS02001765           JUNCTION     0.36     2.01     8.46     0  02:23        2.01
  YS02001767           JUNCTION     0.35     1.97     8.46     0  02:23        1.97
  YS02001770           JUNCTION     0.36     1.95     8.44     0  02:21        1.95
  YS02001774           JUNCTION     0.43     2.05     8.47     0  02:21        2.05
  YS02001779           JUNCTION     0.26     1.68     8.37     0  02:07        1.68
  YS02001783           JUNCTION     0.27     1.34     7.48     0  02:21        1.34
  YS02001784           JUNCTION     0.28     1.18     7.24     0  02:21        1.13
  YS02001786           JUNCTION     0.23     0.91     6.94     0  02:21        0.88
  YS02001788           JUNCTION     0.17     0.62     6.60     0  02:25        0.62
  YS02001790           JUNCTION     0.20     0.73     6.37     0  02:20        0.73
  YS02001791           JUNCTION     0.13     0.44     5.91     0  02:25        0.44
  YS02001793           JUNCTION     0.07     0.31     5.14     0  02:20        0.30
  YS02001882           JUNCTION     0.34     1.80     8.52     0  02:42        1.80
  YS02001884           JUNCTION     0.43     1.93     8.55     0  02:42        1.93
  YS02001887           JUNCTION     0.51     2.00     8.54     0  02:21        2.00
  YS02001890           JUNCTION     0.54     1.81     8.32     0  02:11        1.81
  YS02001895           JUNCTION     0.31     1.67     8.42     0  02:42        1.67
  YS02001898           JUNCTION     0.32     1.77     8.51     0  02:42        1.77
  YS02001901           JUNCTION     0.43     1.87     8.48     0  02:42        1.87
  YS02001904           JUNCTION     0.41     1.70     8.33     0  02:21        1.70
  YS02001907           JUNCTION     0.73     1.96     8.25     0  02:10        1.96
  YS02001910           JUNCTION     0.54     2.04     8.55     0  02:21        2.04
  YS02001915           JUNCTION     0.35     2.00     8.72     0  02:21        2.00
  YS02001918           JUNCTION     0.20     1.70     8.76     0  02:25        1.70
  YS02001920           JUNCTION     0.27     1.78     8.79     0  02:25        1.77
  YS02001923           JUNCTION     0.15     1.55     8.81     0  02:25        1.54
  YS02001926           JUNCTION     0.18     1.39     8.83     0  02:25        1.38
  YS02001929           JUNCTION     0.11     1.16     8.86     0  02:25        1.16
  YS02006553           JUNCTION     0.74     2.06     8.35     0  02:21        2.06
  YS02006556           JUNCTION     0.71     2.19     8.50     0  02:21        2.19
  YS02006558           JUNCTION     0.75     2.48     8.75     0  02:21        2.48
  YS02006561           JUNCTION     0.17     1.02     7.68     0  02:21        0.91
  YS02163301           JUNCTION     0.54     1.93     8.45     0  02:23        1.93
  YS02163601           JUNCTION     0.64     2.07     8.47     0  02:42        2.03
  YS02164001           JUNCTION     0.57     2.00     8.46     0  02:42        1.96
  CC-1                 OUTFALL      0.00     0.00     0.00     0  00:00        0.00
  CC-2                 OUTFALL      0.00     0.00     0.00     0  00:00        0.00
  JK-1                 OUTFALL      0.00     0.00     0.00     0  00:00        0.00
  JK-2                 OUTFALL      0.00     0.00     0.00     0  00:00        0.00
  WSC                  OUTFALL      0.19     0.30     0.97     0  02:35        0.30
  CC-storage           STORAGE      1.04     1.98     7.48     0  02:47        1.98
  JK-storage           STORAGE      3.25     4.24     5.04     0  02:25        4.21
  
  
  *******************
  Node Inflow Summary
  *******************
  
  -------------------------------------------------------------------------------------------------
                                  Maximum  Maximum                  Lateral       Total        Flow
                                  Lateral    Total  Time of Max      Inflow      Inflow     Balance
                                   Inflow   Inflow   Occurrence      Volume      Volume       Error
  Node                 Type           LPS      LPS  days hr:min    10^6 ltr    10^6 ltr     Percent
  -------------------------------------------------------------------------------------------------
  WS02003060           JUNCTION     16.53   550.66     0  02:33       0.476        5.94       0.056
  WS02003066           JUNCTION      0.00   533.85     0  02:33           0        5.46       0.033
  WS02003067           JUNCTION      0.00   533.80     0  02:32           0        5.47       0.086
  WS02003069           JUNCTION      0.32   550.70     0  02:33     0.00922        5.94       0.094
  WS02003072           JUNCTION      0.00   550.30     0  02:34           0        5.94       0.152
  WS02003073           JUNCTION      1.82   552.15     0  02:34      0.0524        5.98       0.130
  WS02004401           JUNCTION      0.00   545.29     0  03:28           0        5.58       0.202
  WS02004402           JUNCTION      0.00   538.02     0  02:23           0        5.57       0.203
  WS02004403           JUNCTION      0.00   537.66     0  02:42           0        5.56       0.196
  WS02004404           JUNCTION      0.16   536.59     0  02:31     0.00467        5.55       0.165
  WS02004405           JUNCTION      0.04   536.42     0  02:31      0.0011        5.55       0.237
  WS02004406           JUNCTION      0.00   536.98     0  02:23           0        5.53       0.402
  WS02004407           JUNCTION      0.00   536.06     0  02:31           0        5.51       0.033
  WS02004409           JUNCTION      0.00   535.77     0  02:31           0        5.51       0.072
  WS02004410           JUNCTION      0.00   534.72     0  02:32           0        5.51       0.105
  WS02004411           JUNCTION      0.00   534.57     0  02:32           0         5.5       0.127
  WS02004412           JUNCTION      0.00   534.23     0  02:32           0        5.49       0.161
  WS02004413           JUNCTION      0.00   533.90     0  02:32           0        5.48       0.281
  WS02006109           JUNCTION      1.23   583.45     0  03:27      0.0354        5.64       0.184
  WS02006110           JUNCTION      0.00   588.37     0  03:27           0        5.63       0.141
  WS02006111           JUNCTION      0.00   572.07     0  03:27           0        5.62       0.020
  WS02006112           JUNCTION      0.00   553.12     0  03:27           0        5.62       0.383
  WS02006113           JUNCTION      0.00   603.59     0  03:27           0        5.62       0.043
  WS02006115           JUNCTION      0.00   573.80     0  03:27           0         5.6       0.138
  WS02006116           JUNCTION      0.00   554.34     0  03:28           0        5.59       0.098
  WS02006228           JUNCTION      0.00   574.61     0  02:21           0        5.61       0.082
  WS02006229           JUNCTION      0.00   571.26     0  02:21           0        5.61       0.093
  WS02006230           JUNCTION     10.28   603.42     0  02:21       0.296        5.62       0.056
  WS02006231           JUNCTION      0.00   594.30     0  02:21           0        5.32      -0.009
  WS02006232           JUNCTION      0.00   590.86     0  02:21           0        5.33       0.211
  WS02006234           JUNCTION      0.00   573.61     0  02:51           0        5.32      -0.165
  WS02006235           JUNCTION      0.00   567.31     0  02:51           0        5.39       0.134
  WS02006238           JUNCTION      0.00   424.37     0  02:10           0        4.34      -0.112
  WS02006239           JUNCTION      0.00   422.99     0  02:10           0        4.31      -0.097
  WS02006240           JUNCTION      0.00   421.25     0  02:10           0        4.28      -0.046
  WS02006242           JUNCTION      0.00   421.09     0  02:10           0        4.25      -0.011
  WS02006243           JUNCTION      0.00   420.61     0  02:10           0        4.24      -0.004
  WS02006245           JUNCTION      0.00   420.09     0  02:55           0        4.24       0.208
  WS02006247           JUNCTION      0.00   419.80     0  02:10           0        4.24      -0.019
  WS02006248           JUNCTION      0.00   425.07     0  04:06           0        4.25       0.077
  WS02006249           JUNCTION      0.00   459.02     0  00:00           0        4.52       0.270
  WS02006251           JUNCTION      0.08   406.23     0  01:58     0.00222        4.51      -0.038
  WS02006252           JUNCTION      0.00   400.00     0  00:00           0        4.51      -0.027
  WS02006256           JUNCTION      0.00   300.00     0  00:00           0        1.58      -0.808
  WSF200               JUNCTION      0.00   533.88     0  02:33           0        5.46       0.015
  YS02001580           JUNCTION      0.00    52.30     0  02:01           0     0.00417       0.385
  YS02001583           JUNCTION      0.00    92.88     0  02:01           0       0.016      -3.135
  YS02001586           JUNCTION   1072.03  1072.15     0  02:26         2.4        2.41       0.037
  YS02001590           JUNCTION      0.00   318.31     0  02:21           0        1.65      -0.027
  YS02001593           JUNCTION      0.00   318.18     0  02:21           0        1.65       0.009
  YS02001596           JUNCTION      0.00   318.09     0  02:21           0        1.65      -0.006
  YS02001600           JUNCTION      0.00   318.60     0  02:21           0        1.65       0.022
  YS02001601           JUNCTION   1789.44  2106.85     0  02:25        3.26        4.91       0.019
  YS02001602           JUNCTION      0.00   493.14     0  02:01           0        2.69       0.018
  YS02001605           JUNCTION      0.00   492.36     0  02:01           0        2.51       0.022
  YS02001607           JUNCTION      0.00   491.52     0  02:01           0        2.51       0.079
  YS02001610           JUNCTION      0.00   953.94     0  02:27           0        3.05       0.078
  YS02001613           JUNCTION      0.00   617.63     0  02:27           0        2.35       0.075
  YS02001616           JUNCTION      0.00   617.82     0  02:28           0        2.35       0.017
  YS02001619           JUNCTION   1891.99  1891.99     0  02:26        3.86        5.68      -0.001
  YS02001622           JUNCTION      0.00  1053.95     0  02:27           0        5.09       0.003
  YS02001625           JUNCTION      0.00  1505.21     0  02:28           0        5.54       0.191
  YS02001629           JUNCTION      0.00   883.73     0  02:04           0        3.84      -0.001
  YS02001633           JUNCTION   1345.47  1345.47     0  02:25         2.4        5.72       0.060
  YS02001641           JUNCTION      0.00  1220.08     0  02:05           0         5.2       0.053
  YS02001644           JUNCTION   1198.34  2215.31     0  02:25        2.08        7.34       0.045
  YS02001647           JUNCTION      0.00  1521.12     0  02:05           0        6.11       0.003
  YS02001649           JUNCTION      0.00  1734.58     0  02:07           0        7.96      -0.001
  YS02001652           JUNCTION      0.00  1177.45     0  02:25           0        1.92      -0.059
  YS02001655           JUNCTION      0.15  1177.57     0  02:25     0.00443        1.92       0.054
  YS02001658           JUNCTION      0.00  1177.79     0  02:25           0        1.91      -0.063
  YS02001661           JUNCTION      0.00  1177.78     0  02:25           0        1.91      -0.043
  YS02001664           JUNCTION   1172.03  1172.03     0  02:25        1.91        1.91      -0.006
  YS02001745           JUNCTION    723.59   723.59     0  02:25        1.15        1.15       0.089
  YS02001748           JUNCTION      0.04   727.73     0  02:25      0.0013        1.15      -0.136
  YS02001751           JUNCTION      0.01   727.82     0  02:25    0.000317        1.15       0.055
  YS02001754           JUNCTION      0.26   727.77     0  02:25     0.00749        1.16      -0.123
  YS02001757           JUNCTION      0.00  2862.33     0  02:17           0        12.5       0.005
  YS02001759           JUNCTION   1007.42  1278.46     0  02:25        1.59        3.42      -0.009
  YS02001762           JUNCTION      0.00   665.22     0  02:16           0        1.84      -0.005
  YS02001765           JUNCTION      0.00   665.82     0  02:16           0        1.84       0.002
  YS02001767           JUNCTION      0.54   665.25     0  02:16      0.0154        1.84       0.010
  YS02001770           JUNCTION   1437.98  1437.98     0  02:25        2.41        2.45      -0.017
  YS02001774           JUNCTION      0.00   851.82     0  02:27           0       0.604       0.171
  YS02001779           JUNCTION      0.01   851.32     0  02:27    0.000144       0.559      -0.023
  YS02001783           JUNCTION      0.00  1177.53     0  02:21           0        5.07       0.004
  YS02001784           JUNCTION      1.06  1174.65     0  02:21      0.0305         5.1       0.009
  YS02001786           JUNCTION      0.06  1177.27     0  02:21     0.00162         5.1       0.015
  YS02001788           JUNCTION      0.07  1179.88     0  02:21     0.00204         5.1       0.006
  YS02001790           JUNCTION      0.15  1176.19     0  02:25     0.00446        5.11       0.011
  YS02001791           JUNCTION      0.00  1296.04     0  02:25           0         5.1      -0.021
  YS02001793           JUNCTION      0.00  1260.21     0  02:20           0        5.11       0.003
  YS02001882           JUNCTION      0.00    26.83     0  02:06           0      0.0136       4.317
  YS02001884           JUNCTION      0.00    42.64     0  02:05           0      0.0499       4.958
  YS02001887           JUNCTION   1064.61  1064.64     0  02:25        1.65        1.68       0.256
  YS02001890           JUNCTION      0.00  1065.92     0  02:25           0        1.64       0.307
  YS02001895           JUNCTION      0.00   518.88     0  02:29           0        1.41       0.120
  YS02001898           JUNCTION      0.00   518.20     0  02:22           0        1.41       0.001
  YS02001901           JUNCTION      0.00   520.51     0  02:21           0        1.41       0.238
  YS02001904           JUNCTION      0.00   519.38     0  02:29           0        1.42       0.188
  YS02001907           JUNCTION      0.00  2760.09     0  02:25           0        5.06       0.351
  YS02001910           JUNCTION      0.00  1937.89     0  02:25           0        3.58       0.201
  YS02001915           JUNCTION   1292.73  1937.28     0  02:25        2.29         3.6       0.041
  YS02001918           JUNCTION      0.00   645.72     0  02:25           0        1.31       0.012
  YS02001920           JUNCTION      2.87   645.42     0  02:25      0.0827        1.31       0.067
  YS02001923           JUNCTION      0.04   641.50     0  02:25     0.00109        1.22      -0.022
  YS02001926           JUNCTION      0.05   640.97     0  02:25      0.0015        1.21      -0.001
  YS02001929           JUNCTION    637.98   637.98     0  02:26        1.21        1.21      -0.013
  YS02006553           JUNCTION      0.00   807.86     0  02:42           0        2.83       0.418
  YS02006556           JUNCTION      0.00   808.57     0  02:42           0        2.84       0.281
  YS02006558           JUNCTION   1470.27  1470.27     0  02:25        2.41        5.16       0.067
  YS02006561           JUNCTION      0.00  1171.95     0  02:21           0        5.07      -0.003
  YS02163301           JUNCTION      0.00   881.76     0  02:04           0        3.84       0.036
  YS02163601           JUNCTION      0.11  1214.55     0  02:05     0.00317         5.2       0.093
  YS02164001           JUNCTION      0.00  1215.65     0  02:05           0        5.19       0.040
  CC-1                 OUTFALL       0.00   683.00     0  00:00           0        4.36       0.000
  CC-2                 OUTFALL       0.00   683.00     0  00:00           0         3.6       0.000
  JK-1                 OUTFALL       0.00  1000.00     0  00:00           0        3.46       0.000
  JK-2                 OUTFALL       0.00  1000.00     0  00:00           0      0.0484       0.000
  WSC                  OUTFALL       0.00   552.03     0  02:35           0        5.97       0.000
  CC-storage           STORAGE       0.00  2862.94     0  02:17           0        14.7      -0.041
  JK-storage           STORAGE       0.00  1215.79     0  02:26           0        5.26       0.058
  
  
  **********************
  Node Surcharge Summary
  **********************
  
  Surcharging occurs when water rises above the top of the highest conduit.
  ---------------------------------------------------------------------
                                               Max. Height   Min. Depth
                                   Hours       Above Crown    Below Rim
  Node                 Type      Surcharged         Meters       Meters
  ---------------------------------------------------------------------
  WS02006109           JUNCTION        2.39          0.444        1.376
  WS02006110           JUNCTION        0.79          0.740        1.110
  WS02006112           JUNCTION        0.99          0.085        1.595
  WS02006228           JUNCTION        2.39          0.484        1.716
  WS02006229           JUNCTION        2.39          0.558        1.892
  WS02006230           JUNCTION        0.80          0.547        1.023
  WS02006231           JUNCTION        1.04          0.730        0.800
  WS02006232           JUNCTION        2.42          1.209        0.271
  WS02006234           JUNCTION        1.38          1.240        0.000
  WS02006235           JUNCTION        2.34          1.290        0.000
  WS02006238           JUNCTION        2.40          1.430        0.000
  WS02006239           JUNCTION        2.36          1.265        0.025
  WS02006240           JUNCTION        2.38          1.195        0.195
  WS02006242           JUNCTION        2.41          0.820        0.000
  WS02006243           JUNCTION        2.38          0.770        0.000
  WS02006245           JUNCTION        2.38          0.817        0.033
  WS02006247           JUNCTION        2.38          0.735        0.025
  WS02006248           JUNCTION        2.38          0.380        0.000
  WS02006249           JUNCTION        2.38          0.390        0.000
  WS02006251           JUNCTION        1.15          1.038        0.142
  WS02006252           JUNCTION        2.57          1.100        0.000
  WS02006256           JUNCTION        5.79          2.050        0.000
  YS02001580           JUNCTION        0.88          0.353        0.097
  YS02001583           JUNCTION        0.89          0.266        0.234
  YS02001586           JUNCTION        1.03          0.510        0.000
  YS02001590           JUNCTION        1.11          0.750        0.000
  YS02001593           JUNCTION        1.11          0.703        0.137
  YS02001596           JUNCTION        1.24          1.038        0.032
  YS02001600           JUNCTION        1.42          1.190        0.000
  YS02001601           JUNCTION        1.78          1.440        0.000
  YS02001602           JUNCTION        1.67          1.270        0.000
  YS02001605           JUNCTION        1.62          1.180        0.000
  YS02001607           JUNCTION        1.11          0.655        0.025
  YS02001610           JUNCTION        1.14          0.680        0.000
  YS02001613           JUNCTION        1.10          0.700        0.000
  YS02001616           JUNCTION        1.07          0.610        0.000
  YS02001619           JUNCTION        1.05          0.610        0.000
  YS02001622           JUNCTION        1.05          0.598        0.022
  YS02001625           JUNCTION        1.24          0.780        0.000
  YS02001629           JUNCTION        0.99          0.470        0.000
  YS02001633           JUNCTION        1.28          1.060        0.000
  YS02001641           JUNCTION        1.22          0.983        0.117
  YS02001644           JUNCTION        1.19          0.920        0.000
  YS02001647           JUNCTION        0.99          0.773        0.127
  YS02001649           JUNCTION        1.11          1.006        0.044
  YS02001652           JUNCTION        0.95          0.959        0.171
  YS02001655           JUNCTION        0.80          0.875        0.325
  YS02001658           JUNCTION        0.46          0.689        0.611
  YS02001661           JUNCTION        0.14          0.228        1.162
  YS02001748           JUNCTION        0.37          0.298        0.892
  YS02001751           JUNCTION        0.66          0.547        0.653
  YS02001754           JUNCTION        0.90          0.738        0.412
  YS02001757           JUNCTION        1.19          1.127        0.083
  YS02001759           JUNCTION        1.11          1.105        0.105
  YS02001762           JUNCTION        1.08          1.060        0.090
  YS02001765           JUNCTION        1.04          1.006        0.094
  YS02001767           JUNCTION        1.01          0.972        0.058
  YS02001770           JUNCTION        0.99          0.920        0.000
  YS02001774           JUNCTION        1.06          1.050        0.000
  YS02001779           JUNCTION        0.89          0.680        0.000
  YS02001783           JUNCTION        0.75          0.539        1.061
  YS02001784           JUNCTION        0.72          0.376        1.114
  YS02001786           JUNCTION        0.58          0.107        1.323
  YS02001882           JUNCTION        0.68          0.805        0.025
  YS02001884           JUNCTION        0.69          0.870        0.000
  YS02001887           JUNCTION        0.73          0.950        0.000
  YS02001890           JUNCTION        0.75          0.760        0.000
  YS02001895           JUNCTION        0.66          0.668        0.082
  YS02001898           JUNCTION        0.66          0.740        0.000
  YS02001901           JUNCTION        0.71          0.870        0.000
  YS02001904           JUNCTION        0.70          0.696        0.154
  YS02001907           JUNCTION        1.08          0.950        0.000
  YS02001910           JUNCTION        0.79          1.038        0.062
  YS02001915           JUNCTION        0.67          1.000        0.000
  YS02001918           JUNCTION        0.57          0.698        0.112
  YS02001920           JUNCTION        0.59          0.779        0.361
  YS02001923           JUNCTION        0.20          0.342        0.478
  YS02001926           JUNCTION        0.24          0.388        0.512
  YS02001929           JUNCTION        0.08          0.164        0.616
  YS02006553           JUNCTION        1.10          1.063        0.127
  YS02006556           JUNCTION        0.91          1.146        0.204
  YS02006558           JUNCTION        0.89          1.383        0.017
  YS02006561           JUNCTION        0.53          0.220        0.930
  YS02163301           JUNCTION        1.25          0.929        0.101
  YS02163601           JUNCTION        1.33          1.068        0.012
  YS02164001           JUNCTION        1.22          0.998        0.102
  
  
  *********************
  Node Flooding Summary
  *********************
  
  Flooding refers to all water that overflows a node, whether it ponds or not.
  --------------------------------------------------------------------------
                                                             Total   Maximum
                                 Maximum   Time of Max       Flood    Ponded
                        Hours       Rate    Occurrence      Volume     Depth
  Node                 Flooded       LPS   days hr:min    10^6 ltr    Meters
  --------------------------------------------------------------------------
  WS02006234              0.01      2.52      0  02:21       0.000     0.000
  WS02006235              0.01      2.35      0  02:21       0.000     0.000
  WS02006238              0.01      1.33      0  02:21       0.000     0.000
  WS02006242              0.01     10.72      0  03:27       0.000     0.000
  WS02006243              0.01      1.81      0  03:27       0.000     0.000
  WS02006248              0.03     35.89      0  02:21       0.001     0.000
  WS02006249              1.10    110.21      0  03:27       0.258     0.000
  WS02006252              0.01    245.63      0  00:00       0.000     0.000
  WS02006256              1.46    293.19      0  00:00       0.504     0.000
  YS02001586              0.70    754.30      0  02:26       0.755     0.000
  YS02001590              0.01      3.58      0  02:01       0.000     0.000
  YS02001600              0.01      1.98      0  02:01       0.000     0.000
  YS02001601              0.97   1708.81      0  02:25       2.212     0.000
  YS02001602              0.86     62.06      0  02:35       0.179     0.000
  YS02001605              0.01      0.16      0  02:29       0.000     0.000
  YS02001610              0.78    953.31      0  02:27       1.230     0.000
  YS02001613              0.01      0.67      0  02:21       0.000     0.000
  YS02001616              0.03      8.77      0  02:42       0.000     0.000
  YS02001619              0.11    223.92      0  02:26       0.051     0.000
  YS02001625              0.76   1505.02      0  02:28       2.207     0.000
  YS02001629              0.19    240.95      0  02:25       0.071     0.000
  YS02001633              0.01      1.16      0  02:21       0.000     0.000
  YS02001644              0.38   2214.89      0  02:25       1.295     0.000
  YS02001770              0.09    321.40      0  02:25       0.052     0.000
  YS02001774              0.01      0.50      0  02:21       0.000     0.000
  YS02001779              0.32    851.14      0  02:27       0.541     0.000
  YS02001884              0.01      0.24      0  02:42       0.000     0.000
  YS02001887              0.01      1.24      0  02:21       0.000     0.000
  YS02001890              0.27    548.70      0  02:25       0.222     0.000
  YS02001898              0.01      0.28      0  02:42       0.000     0.000
  YS02001901              0.01      0.17      0  02:42       0.000     0.000
  YS02001907              0.51   2759.39      0  02:25       2.286     0.000
  YS02001915              0.01      0.96      0  02:21       0.000     0.000
  
  
  **********************
  Storage Volume Summary
  **********************
  
  ------------------------------------------------------------------------------------------------
                         Average    Avg   Evap  Exfil     Maximum    Max    Time of Max    Maximum
                          Volume   Pcnt   Pcnt   Pcnt      Volume   Pcnt     Occurrence    Outflow
  Storage Unit           1000 m³   Full   Loss   Loss     1000 m³   Full    days hr:min        LPS
  ------------------------------------------------------------------------------------------------
  CC-storage               2.888   45.0    0.0    0.0       5.507   85.9       0  02:47    1783.53
  JK-storage               0.163   56.0    0.0    0.0       0.213   73.2       0  02:25    2300.00
  
  
  ***********************
  Outfall Loading Summary
  ***********************
  
  -----------------------------------------------------------
                         Flow       Avg       Max       Total
                         Freq      Flow      Flow      Volume
  Outfall Node           Pcnt       LPS       LPS    10^6 ltr
  -----------------------------------------------------------
  CC-1                  24.11    683.00    683.00       4.362
  CC-2                  19.88    683.00    683.00       3.599
  JK-1                  14.78   1000.00   1000.00       3.459
  JK-2                   0.15   1000.00   1000.00       0.048
  WSC                   99.96    272.16    552.03       5.973
  -----------------------------------------------------------
  System                31.78   3638.16   3366.23      17.442
  
  
  ********************
  Link Flow Summary
  ********************
  
  -----------------------------------------------------------------------------
                                 Maximum  Time of Max   Maximum    Max/    Max/
                                  |Flow|   Occurrence   |Veloc|    Full    Full
  Link                 Type          LPS  days hr:min     m/sec    Flow   Depth
  -----------------------------------------------------------------------------
  1                    CONDUIT    552.03     0  02:35      2.82    0.19    0.30
  WS02003060WS02003069 CONDUIT    550.38     0  02:33      1.64    0.22    0.34
  WS02003066WSF200     CONDUIT    533.88     0  02:33      2.85    0.09    0.22
  WS02003067WS02003066 CONDUIT    533.85     0  02:33      1.20    0.17    0.41
  WS02003069WS02003072 CONDUIT    550.30     0  02:34      1.37    0.26    0.39
  WS02003072WS02003073 CONDUIT    550.33     0  02:34      1.43    1.19    0.37
  WS02004401WS02004402 CONDUIT    538.02     0  02:23      1.23    0.65    0.86
  WS02004402WS02004403 CONDUIT    537.66     0  02:42      1.24    0.77    0.88
  WS02004403WS02004404 CONDUIT    536.42     0  02:31      1.17    0.39    0.93
  WS02004404WS02004405 CONDUIT    536.38     0  02:31      1.43    5.26    0.96
  WS02004405WS02004406 CONDUIT    536.98     0  02:23      1.39    1.06    0.96
  WS02004406WS02004407 CONDUIT    536.06     0  02:31      1.04    0.24    0.63
  WS02004407WS02004409 CONDUIT    535.77     0  02:31      1.53    0.19    0.48
  WS02004409WS02004410 CONDUIT    534.72     0  02:32      1.00    0.69    0.67
  WS02004410WS02004411 CONDUIT    534.57     0  02:32      0.94    0.73    0.68
  WS02004411WS02004412 CONDUIT    534.23     0  02:32      0.92    0.76    0.69
  WS02004412WS02004413 CONDUIT    533.90     0  02:32      0.87    0.36    0.78
  WS02004413WS02003067 CONDUIT    533.80     0  02:32      1.11    0.23    0.59
  WS02006109WS02006110 CONDUIT    588.37     0  03:27      1.17    1.13    1.00
  WS02006110WS02006113 CONDUIT    603.59     0  03:27      1.44    0.55    0.79
  WS02006111WS02006112 CONDUIT    553.12     0  03:27      1.96    0.26    0.68
  WS02006112WS02006115 CONDUIT    573.80     0  03:27      0.81    0.34    0.87
  WS02006113WS02006111 CONDUIT    572.07     0  03:27      2.47    0.69    0.47
  WS02006115WS02006116 CONDUIT    554.34     0  03:28      1.19    0.71    0.76
  WS02006116WS02004401 CONDUIT    545.29     0  03:28      1.22    0.75    0.84
  WS02006228WS02006109 CONDUIT    582.22     0  03:27      1.16    2.54    1.00
  WS02006229WS02006228 CONDUIT    574.61     0  02:21      1.14    1.90    1.00
  WS02006230WS02006229 CONDUIT    571.26     0  02:21      1.48   12.71    1.00
  WS02006231WS02006230 CONDUIT    593.14     0  02:21      1.59    9.00    1.00
  WS02006232WS02006231 CONDUIT    594.30     0  02:21      1.54    1.25    1.00
  WS02006234WS02006232 CONDUIT    590.86     0  02:21      1.54    1.20    1.00
  WS02006235WS02006234 CONDUIT    573.61     0  02:51      1.49    6.05    1.00
  WS02006238WS02006235 CONDUIT    427.41     0  02:55      1.51    0.95    1.00
  WS02006239WS02006238 CONDUIT    424.37     0  02:10      1.10    1.36    1.00
  WS02006240WS02006239 CONDUIT    422.99     0  02:10      1.24    1.33    1.00
  WS02006242WS02006240 CONDUIT    421.25     0  02:10      1.13    1.67    1.00
  WS02006243WS02006242 CONDUIT    421.09     0  02:10      1.40    0.90    1.00
  WS02006245WS02006243 CONDUIT    420.61     0  02:10      1.45    1.24    1.00
  WS02006247WS02006245 CONDUIT    420.09     0  02:55      1.43    3.33    1.00
  WS02006248WS02006247 CONDUIT    419.80     0  02:10      1.44    0.91    1.00
  WS02006249WS02006248 CONDUIT    425.07     0  04:06      1.36    2.33    1.00
  WS02006251WS02006249 CONDUIT    459.02     0  00:00      1.99    1.32    1.00
  WS02006252WS02006251 CONDUIT    406.15     0  01:58     25.30    1.49    1.00
  WS02006256WS02006235 CONDUIT    288.91     0  00:00      4.23    3.06    1.00
  WSF200WS02003060     CONDUIT    534.13     0  02:33      2.06    0.12    0.28
  YS02001580YS02001583 CONDUIT     52.30     0  02:01      0.45    0.20    1.00
  YS02001583YS02001586 CONDUIT     92.88     0  02:01      0.38    0.14    1.00
  YS02001586YS02001590 CONDUIT    318.31     0  02:21      1.23    0.56    1.00
  YS02001590YS02001593 CONDUIT    318.18     0  02:21      1.13    2.00    1.00
  YS02001593YS02001596 CONDUIT    318.09     0  02:21      1.72    0.50    1.00
  YS02001596YS02001600 CONDUIT    318.60     0  02:21      1.28    0.62    1.00
  YS02001600YS02001601 CONDUIT    319.00     0  02:21      1.13    0.55    1.00
  YS02001601YS02001602 CONDUIT    493.14     0  02:01      1.74    1.78    1.00
  YS02001602YS02001605 CONDUIT    492.36     0  02:01      1.74   10.42    1.00
  YS02001605YS02001607 CONDUIT    491.52     0  02:01      1.74    2.70    1.00
  YS02001607YS02001610 CONDUIT    491.36     0  02:01      0.63    0.47    1.00
  YS02001610YS02001613 CONDUIT    617.74     0  02:28      0.79    0.71    1.00
  YS02001613YS02001616 CONDUIT    617.63     0  02:27      0.79    0.53    1.00
  YS02001616YS02001619 CONDUIT    617.82     0  02:28      0.79    1.07    1.00
  YS02001619YS02001622 CONDUIT   1053.95     0  02:27      1.34    1.55    1.00
  YS02001622YS02001625 CONDUIT   1053.70     0  02:27      1.34    0.56    1.00
  YS02001625YS02001629 CONDUIT    883.73     0  02:04      1.13    0.42    1.00
  YS02001629YS02163301 CONDUIT    881.76     0  02:04      1.12    1.09    1.00
  YS02001633YS02163601 CONDUIT   1214.44     0  02:05      1.55    1.27    1.00
  YS02001641YS02001644 CONDUIT   1222.95     0  02:05      1.56    3.95    1.00
  YS02001644YS02001647 CONDUIT   1521.12     0  02:05      1.98    0.89    1.00
  YS02001647YS02001649 CONDUIT   1528.14     0  02:05      2.13    0.81    1.00
  YS02001649YS02001757 CONDUIT   1733.51     0  02:07      2.27    1.05    1.00
  YS02001652YS02001649 CONDUIT   1177.68     0  02:25      1.50    0.58    1.00
  YS02001655YS02001652 CONDUIT   1177.45     0  02:25      1.50    0.57    1.00
  YS02001658YS02001655 CONDUIT   1177.42     0  02:25      1.76    0.50    1.00
  YS02001661YS02001658 CONDUIT   1177.79     0  02:25      2.06    0.46    1.00
  YS02001664YS02001661 CONDUIT   1177.78     0  02:25      1.94    0.37    0.89
  YS02001745YS02001748 CONDUIT    727.69     0  02:25      1.89    0.28    0.98
  YS02001748YS02001751 CONDUIT    727.81     0  02:25      1.51    0.37    1.00
  YS02001751YS02001754 CONDUIT    727.51     0  02:25      1.36    0.35    1.00
  YS02001754YS02001757 CONDUIT    728.02     0  02:25      0.93    0.29    1.00
  YS02001757CaochengTiaoxuchi CONDUIT   2862.94     0  02:17      3.65    1.24    1.00
  YS02001759YS02001757 CONDUIT   1278.03     0  02:25      1.63    0.91    1.00
  YS02001762YS02001759 CONDUIT    665.08     0  02:16      0.85    0.77    1.00
  YS02001765YS02001762 CONDUIT    665.22     0  02:16      0.85    0.62    1.00
  YS02001767YS02001765 CONDUIT    665.82     0  02:16      0.85    0.84    1.00
  YS02001770YS02001767 CONDUIT    664.71     0  02:16      0.85    2.63    1.00
  YS02001774YS02001770 CONDUIT    851.82     0  02:27      1.08    0.54    1.00
  YS02001779YS02001774 CONDUIT    851.32     0  02:27      1.08    0.43    1.00
  YS02001783YS02001784 CONDUIT   1173.59     0  02:21      2.33    1.62    1.00
  YS02001784YS02001785 CONDUIT   1177.22     0  02:21      2.34    2.74    1.00
  YS02001786YS02001788 CONDUIT   1179.81     0  02:21      2.51    2.27    0.89
  YS02001788YS02001790 CONDUIT   1176.04     0  02:25      2.72    0.87    0.84
  YS02001790YS02001791 CONDUIT   1296.04     0  02:25      3.44    1.41    0.71
  YS02001791YS02001793 CONDUIT   1260.21     0  02:20      6.55    0.54    0.45
  YS02001793JiankangQianchi CONDUIT   1215.79     0  02:26      2.37    0.10    0.65
  YS02001882YS02001884 CONDUIT     26.83     0  02:06      0.16    0.03    1.00
  YS02001884YS02001887 CONDUIT     42.64     0  02:05      0.12    0.06    1.00
  YS02001887YS02001890 CONDUIT   1065.92     0  02:25      1.36    1.82    1.00
  YS02001890YS02001895 CONDUIT    518.88     0  02:29      0.66    0.24    1.00
  YS02001895YS02001898 CONDUIT    518.20     0  02:22      0.66    0.90    1.00
  YS02001898YS02001901 CONDUIT    520.51     0  02:21      0.66    0.34    1.00
  YS02001901YS02001904 CONDUIT    519.38     0  02:29      0.66    0.81    1.00
  YS02001904YS02001907 CONDUIT    525.45     0  02:21      0.67    0.18    1.00
  YS02001907YS02006553 CONDUIT    807.86     0  02:42      0.90    0.95    1.00
  YS02001910YS02001907 CONDUIT   1937.83     0  02:25      2.47    1.09    1.00
  YS02001915YS02001910 CONDUIT   1937.89     0  02:25      2.47    0.96    1.00
  YS02001918YS02001915 CONDUIT    646.52     0  02:25      0.82    0.36    1.00
  YS02001920YS02001918 CONDUIT    645.72     0  02:25      0.82    0.62    1.00
  YS02001923YS02001920 CONDUIT    642.55     0  02:25      0.82    0.29    1.00
  YS02001926YS02001923 CONDUIT    641.46     0  02:25      0.93    0.92    1.00
  YS02001929YS02001926 CONDUIT    640.92     0  02:25      1.05    0.30    1.00
  YS02006553YS02006556 CONDUIT    808.57     0  02:42      1.03    0.69    1.00
  YS02006556YS02006558 CONDUIT    809.56     0  02:42      1.03    0.64    1.00
  YS02006558YS02006561 CONDUIT   1171.95     0  02:21      4.14    2.59    1.00
  YS02006561YS02001783 CONDUIT   1177.53     0  02:21      2.34    0.61    1.00
  YS02163301YS02001633 CONDUIT    881.81     0  02:04      1.12    0.83    1.00
  YS02163601YS02164001 CONDUIT   1215.65     0  02:05      1.55    1.08    1.00
  YS02164001YS02001641 CONDUIT   1220.08     0  02:05      1.55    1.67    1.00
  CC-R1                PUMP       683.00     0  00:00              1.00
  CC-R2                PUMP       683.00     0  00:00              1.00
  CC-S1                PUMP       200.00     0  00:00              1.00
  CC-S2                PUMP       200.00     0  00:00              1.00
  JK-R1                PUMP      1000.00     0  00:00              1.00
  JK-R2                PUMP      1000.00     0  00:00              1.00
  JK-S                 PUMP       300.00     0  00:00              1.00
  
  
  ***************************
  Flow Classification Summary
  ***************************
  
  -------------------------------------------------------------------------------------
                      Adjusted    ---------- Fraction of Time in Flow Class ---------- 
                       /Actual         Up    Down  Sub   Sup   Up    Down  Norm  Inlet 
  Conduit               Length    Dry  Dry   Dry   Crit  Crit  Crit  Crit  Ltd   Ctrl  
  -------------------------------------------------------------------------------------
  1                       1.00   0.00  0.00  0.00  0.00  1.00  0.00  0.00  0.42  0.00
  WS02003060WS02003069    1.00   0.00  0.00  0.00  0.97  0.03  0.00  0.00  0.65  0.00
  WS02003066WSF200        1.00   0.06  0.00  0.00  0.00  0.94  0.00  0.00  0.81  0.00
  WS02003067WS02003066    1.00   0.05  0.01  0.00  0.94  0.00  0.00  0.00  0.00  0.00
  WS02003069WS02003072    1.00   0.00  0.00  0.00  0.99  0.01  0.00  0.00  0.68  0.00
  WS02003072WS02003073    1.00   0.00  0.00  0.00  0.00  0.00  0.00  1.00  0.00  0.00
  WS02004401WS02004402    1.00   0.02  0.00  0.00  0.98  0.00  0.00  0.00  0.00  0.00
  WS02004402WS02004403    1.00   0.02  0.00  0.00  0.98  0.00  0.00  0.00  0.00  0.00
  WS02004403WS02004404    1.00   0.00  0.03  0.00  0.97  0.00  0.00  0.00  0.00  0.00
  WS02004404WS02004405    1.00   0.00  0.00  0.00  1.00  0.00  0.00  0.00  0.01  0.00
  WS02004405WS02004406    1.00   0.00  0.00  0.00  1.00  0.00  0.00  0.00  0.00  0.00
  WS02004406WS02004407    1.00   0.00  0.03  0.00  0.96  0.00  0.00  0.00  0.00  0.00
  WS02004407WS02004409    1.00   0.04  0.00  0.00  0.96  0.01  0.00  0.00  0.96  0.00
  WS02004409WS02004410    1.00   0.04  0.00  0.00  0.96  0.00  0.00  0.00  0.00  0.00
  WS02004410WS02004411    1.00   0.04  0.00  0.00  0.96  0.00  0.00  0.00  0.00  0.00
  WS02004411WS02004412    1.00   0.04  0.00  0.00  0.96  0.00  0.00  0.00  0.00  0.00
  WS02004412WS02004413    1.00   0.04  0.00  0.00  0.96  0.00  0.00  0.00  0.00  0.00
  WS02004413WS02003067    1.00   0.04  0.01  0.00  0.00  0.00  0.95  0.00  0.00  0.00
  WS02006109WS02006110    1.00   0.00  0.01  0.00  0.98  0.00  0.01  0.00  0.00  0.00
  WS02006110WS02006113    1.00   0.01  0.01  0.00  0.98  0.00  0.00  0.00  0.00  0.00
  WS02006111WS02006112    1.00   0.02  0.00  0.00  0.98  0.00  0.00  0.00  0.98  0.00
  WS02006112WS02006115    1.00   0.02  0.00  0.00  0.97  0.00  0.00  0.00  0.00  0.00
  WS02006113WS02006111    1.00   0.02  0.00  0.00  0.00  0.98  0.00  0.00  0.15  0.00
  WS02006115WS02006116    1.00   0.02  0.00  0.00  0.97  0.00  0.00  0.01  0.00  0.00
  WS02006116WS02004401    1.00   0.02  0.00  0.00  0.98  0.00  0.00  0.00  0.00  0.00
  WS02006228WS02006109    1.00   0.00  0.00  0.00  1.00  0.00  0.00  0.00  0.00  0.00
  WS02006229WS02006228    1.00   0.00  0.00  0.00  0.99  0.00  0.00  0.01  0.00  0.00
  WS02006230WS02006229    1.00   0.00  0.00  0.00  0.99  0.00  0.00  0.01  0.00  0.00
  WS02006231WS02006230    1.00   0.00  0.00  0.00  0.32  0.00  0.68  0.00  0.00  0.00
  WS02006232WS02006231    1.00   0.00  0.00  0.00  0.99  0.00  0.01  0.00  0.00  0.00
  WS02006234WS02006232    1.00   0.00  0.00  0.00  1.00  0.00  0.00  0.00  0.12  0.00
  WS02006235WS02006234    1.00   0.00  0.00  0.00  0.81  0.00  0.19  0.00  0.00  0.00
  WS02006238WS02006235    1.00   0.00  0.00  0.00  1.00  0.00  0.00  0.00  0.00  0.00
  WS02006239WS02006238    1.00   0.00  0.00  0.00  1.00  0.00  0.00  0.00  0.28  0.00
  WS02006240WS02006239    1.00   0.00  0.00  0.00  0.63  0.00  0.00  0.37  0.01  0.00
  WS02006242WS02006240    1.00   0.00  0.00  0.00  0.99  0.00  0.01  0.00  0.00  0.00
  WS02006243WS02006242    1.00   0.00  0.00  0.00  0.99  0.00  0.00  0.01  0.49  0.00
  WS02006245WS02006243    1.00   0.00  0.00  0.00  0.76  0.00  0.00  0.23  0.01  0.00
  WS02006247WS02006245    1.00   0.00  0.00  0.00  0.99  0.00  0.00  0.01  0.00  0.00
  WS02006248WS02006247    1.00   0.00  0.00  0.00  0.99  0.00  0.00  0.01  0.29  0.00
  WS02006249WS02006248    1.00   0.00  0.00  0.00  0.50  0.00  0.50  0.00  0.00  0.00
  WS02006251WS02006249    1.00   0.00  0.00  0.00  0.99  0.01  0.00  0.00  0.51  0.00
  WS02006252WS02006251    1.00   0.00  0.54  0.00  0.14  0.00  0.32  0.00  0.00  0.00
  WS02006256WS02006235    1.00   0.00  0.00  0.00  1.00  0.00  0.00  0.00  0.00  0.00
  WSF200WS02003060        1.00   0.00  0.06  0.00  0.37  0.57  0.00  0.00  0.50  0.00
  YS02001580YS02001583    1.00   0.25  0.52  0.00  0.23  0.00  0.00  0.00  0.61  0.00
  YS02001583YS02001586    1.00   0.40  0.32  0.00  0.28  0.00  0.00  0.00  0.62  0.00
  YS02001586YS02001590    1.00   0.13  0.00  0.00  0.47  0.04  0.00  0.36  0.37  0.00
  YS02001590YS02001593    1.00   0.13  0.01  0.00  0.16  0.00  0.71  0.00  0.00  0.00
  YS02001593YS02001596    1.00   0.13  0.00  0.00  0.18  0.01  0.00  0.68  0.02  0.00
  YS02001596YS02001600    1.00   0.13  0.00  0.00  0.24  0.01  0.00  0.61  0.04  0.00
  YS02001600YS02001601    1.00   0.13  0.01  0.00  0.86  0.00  0.00  0.00  0.57  0.00
  YS02001601YS02001602    1.00   0.13  0.01  0.00  0.87  0.00  0.00  0.00  0.00  0.00
  YS02001602YS02001605    1.00   0.13  0.00  0.00  0.87  0.00  0.00  0.00  0.00  0.00
  YS02001605YS02001607    1.00   0.13  0.00  0.00  0.87  0.00  0.00  0.00  0.00  0.00
  YS02001607YS02001610    1.00   0.13  0.00  0.00  0.86  0.00  0.00  0.00  0.01  0.00
  YS02001610YS02001613    1.00   0.13  0.00  0.00  0.87  0.00  0.00  0.00  0.00  0.00
  YS02001613YS02001616    1.00   0.13  0.00  0.00  0.87  0.00  0.00  0.00  0.00  0.00
  YS02001616YS02001619    1.00   0.13  0.00  0.00  0.87  0.00  0.00  0.00  0.00  0.00
  YS02001619YS02001622    1.00   0.13  0.00  0.00  0.87  0.00  0.00  0.00  0.26  0.00
  YS02001622YS02001625    1.00   0.13  0.00  0.00  0.87  0.00  0.00  0.00  0.03  0.00
  YS02001625YS02001629    1.00   0.13  0.04  0.00  0.22  0.00  0.62  0.00  0.00  0.00
  YS02001629YS02163301    1.00   0.14  0.01  0.00  0.85  0.00  0.00  0.00  0.00  0.00
  YS02001633YS02163601    1.00   0.00  0.01  0.00  0.99  0.00  0.00  0.00  0.14  0.00
  YS02001641YS02001644    1.00   0.00  0.01  0.00  0.99  0.00  0.00  0.00  0.00  0.00
  YS02001644YS02001647    1.00   0.00  0.16  0.00  0.84  0.00  0.00  0.00  0.00  0.00
  YS02001647YS02001649    1.00   0.00  0.16  0.00  0.62  0.22  0.00  0.00  0.58  0.00
  YS02001649YS02001757    1.00   0.00  0.00  0.00  0.86  0.14  0.00  0.00  0.40  0.00
  YS02001652YS02001649    1.00   0.00  0.00  0.00  0.97  0.03  0.00  0.00  0.67  0.00
  YS02001655YS02001652    1.00   0.00  0.00  0.00  0.26  0.02  0.00  0.72  0.07  0.00
  YS02001658YS02001655    1.00   0.00  0.14  0.00  0.70  0.16  0.00  0.00  0.64  0.00
  YS02001661YS02001658    1.00   0.14  0.00  0.00  0.54  0.32  0.00  0.00  0.65  0.00
  YS02001664YS02001661    1.00   0.13  0.00  0.00  0.79  0.09  0.00  0.00  0.83  0.00
  YS02001745YS02001748    1.00   0.00  0.00  0.00  0.15  0.00  0.00  0.85  0.04  0.00
  YS02001748YS02001751    1.00   0.00  0.00  0.00  0.85  0.15  0.00  0.00  0.71  0.00
  YS02001751YS02001754    1.00   0.00  0.00  0.00  0.22  0.02  0.00  0.76  0.04  0.00
  YS02001754YS02001757    1.00   0.00  0.00  0.00  1.00  0.00  0.00  0.00  0.74  0.00
  YS02001757CaochengTiaoxuchi    1.00   0.00  0.00  0.00  1.00  0.00  0.00  0.00  0.49  0.00
  YS02001759YS02001757    1.00   0.00  0.00  0.00  0.99  0.01  0.00  0.00  0.47  0.00
  YS02001762YS02001759    1.00   0.00  0.00  0.00  1.00  0.00  0.00  0.00  0.04  0.00
  YS02001765YS02001762    1.00   0.00  0.00  0.00  1.00  0.00  0.00  0.00  0.60  0.00
  YS02001767YS02001765    1.00   0.00  0.00  0.00  1.00  0.00  0.00  0.00  0.01  0.00
  YS02001770YS02001767    1.00   0.00  0.00  0.00  1.00  0.00  0.00  0.00  0.00  0.00
  YS02001774YS02001770    1.00   0.00  0.13  0.00  0.71  0.00  0.15  0.00  0.02  0.00
  YS02001779YS02001774    1.00   0.00  0.00  0.00  1.00  0.00  0.00  0.00  0.70  0.00
  YS02001783YS02001784    1.00   0.00  0.17  0.00  0.83  0.00  0.00  0.00  0.54  0.00
  YS02001784YS02001785    1.00   0.00  0.00  0.00  1.00  0.00  0.00  0.00  0.16  0.00
  YS02001786YS02001788    1.00   0.00  0.00  0.00  0.79  0.21  0.00  0.00  0.00  0.00
  YS02001788YS02001790    1.00   0.00  0.00  0.00  0.21  0.79  0.00  0.00  0.78  0.00
  YS02001790YS02001791    1.00   0.00  0.00  0.00  0.01  0.99  0.00  0.00  0.16  0.00
  YS02001791YS02001793    1.00   0.00  0.00  0.00  0.00  1.00  0.00  0.00  0.02  0.00
  YS02001793JiankangQianchi    1.00   0.00  0.00  0.00  0.99  0.01  0.00  0.00  0.92  0.00
  YS02001882YS02001884    1.00   0.14  0.01  0.00  0.85  0.00  0.00  0.00  0.00  0.00
  YS02001884YS02001887    1.00   0.06  0.05  0.00  0.89  0.00  0.00  0.00  0.00  0.00
  YS02001887YS02001890    1.00   0.00  0.00  0.00  0.97  0.00  0.03  0.00  0.00  0.00
  YS02001890YS02001895    1.00   0.00  0.15  0.00  0.85  0.00  0.00  0.00  0.00  0.00
  YS02001895YS02001898    1.00   0.15  0.00  0.00  0.83  0.00  0.02  0.00  0.00  0.00
  YS02001898YS02001901    1.00   0.16  0.00  0.00  0.84  0.00  0.00  0.00  0.01  0.00
  YS02001901YS02001904    1.00   0.16  0.00  0.00  0.84  0.00  0.00  0.00  0.00  0.00
  YS02001904YS02001907    1.00   0.00  0.15  0.00  0.84  0.00  0.00  0.00  0.00  0.00
  YS02001907YS02006553    1.00   0.00  0.02  0.00  0.98  0.00  0.00  0.00  0.00  0.00
  YS02001910YS02001907    1.00   0.00  0.00  0.00  0.97  0.00  0.00  0.03  0.12  0.00
  YS02001915YS02001910    1.00   0.00  0.00  0.00  0.97  0.03  0.00  0.00  0.13  0.00
  YS02001918YS02001915    1.00   0.00  0.01  0.00  0.98  0.02  0.00  0.00  0.70  0.00
  YS02001920YS02001918    1.00   0.00  0.01  0.00  0.99  0.00  0.00  0.00  0.00  0.00
  YS02001923YS02001920    1.00   0.00  0.00  0.00  1.00  0.00  0.00  0.00  0.89  0.00
  YS02001926YS02001923    1.00   0.00  0.07  0.00  0.08  0.00  0.84  0.00  0.00  0.00
  YS02001929YS02001926    1.00   0.00  0.13  0.00  0.87  0.00  0.00  0.00  0.80  0.00
  YS02006553YS02006556    1.00   0.01  0.00  0.00  0.99  0.00  0.00  0.00  0.03  0.00
  YS02006556YS02006558    1.00   0.00  0.00  0.00  1.00  0.00  0.00  0.00  0.00  0.00
  YS02006558YS02006561    1.00   0.17  0.00  0.00  0.08  0.75  0.00  0.00  0.17  0.00
  YS02006561YS02001783    1.00   0.17  0.00  0.00  0.12  0.71  0.00  0.00  0.66  0.00
  YS02163301YS02001633    1.00   0.00  0.14  0.00  0.86  0.00  0.00  0.00  0.00  0.00
  YS02163601YS02164001    1.00   0.00  0.08  0.00  0.92  0.00  0.00  0.00  0.00  0.00
  YS02164001YS02001641    1.00   0.01  0.07  0.00  0.92  0.00  0.00  0.00  0.05  0.00
  
  
  *************************
  Conduit Surcharge Summary
  *************************
  
  ----------------------------------------------------------------------------
                                                           Hours        Hours 
                         --------- Hours Full --------   Above Full   Capacity
  Conduit                Both Ends  Upstream  Dnstream   Normal Flow   Limited
  ----------------------------------------------------------------------------
  WS02003072WS02003073        0.01      0.01      0.01      1.41         0.01
  WS02004404WS02004405        0.01      0.01      0.01      3.69         0.01
  WS02004405WS02004406        0.01      0.01      0.01      0.90         0.01
  WS02006109WS02006110        0.78      0.78      2.42      0.99         0.01
  WS02006110WS02006113        0.01      0.01      2.41      0.01         0.01
  WS02006111WS02006112        0.01      0.01      2.63      0.01         0.01
  WS02006112WS02006115        0.01      0.01      0.98      0.01         0.01
  WS02006228WS02006109        2.39      2.42      2.39      2.96         2.39
  WS02006229WS02006228        2.39      2.39      2.39      2.65         2.37
  WS02006230WS02006229        2.47      2.57      2.47      4.19         2.47
  WS02006231WS02006230        0.80      0.80      1.13      3.97         0.01
  WS02006232WS02006231        1.04      1.04      2.42      1.13         0.01
  WS02006234WS02006232        2.32      2.32      2.42      1.11         1.07
  WS02006235WS02006234        1.37      1.38      2.33      3.86         0.03
  WS02006238WS02006235        2.36      2.36      2.43      0.01         0.01
  WS02006239WS02006238        2.40      2.41      2.40      2.49         2.12
  WS02006240WS02006239        2.35      2.40      2.36      2.48         1.98
  WS02006242WS02006240        2.38      2.38      2.43      2.59         0.01
  WS02006243WS02006242        2.39      2.39      2.41      0.01         0.07
  WS02006245WS02006243        2.38      2.38      2.38      1.61         1.63
  WS02006247WS02006245        2.38      2.39      2.38      3.62         2.36
  WS02006248WS02006247        2.38      2.38      2.38      0.01         0.08
  WS02006249WS02006248        2.37      2.38      2.38      3.60         0.01
  WS02006251WS02006249        2.37      2.37      2.38      2.53         2.27
  WS02006252WS02006251        2.57      2.57      2.57      2.57         0.01
  WS02006256WS02006235        3.84      3.91      5.75      1.46         0.01
  YS02001580YS02001583        0.88      0.88      0.96      0.01         0.01
  YS02001583YS02001586        0.89      0.89      1.03      0.01         0.01
  YS02001586YS02001590        1.04      1.04      1.11      0.01         0.01
  YS02001590YS02001593        1.11      1.11      1.14      1.10         0.01
  YS02001593YS02001596        1.12      1.12      1.24      0.01         0.01
  YS02001596YS02001600        1.31      1.31      1.42      0.01         0.01
  YS02001600YS02001601        1.48      1.48      1.78      0.01         0.01
  YS02001601YS02001602        1.67      1.67      1.82      1.41         0.01
  YS02001602YS02001605        1.62      1.62      1.67      2.58         0.01
  YS02001605YS02001607        1.57      1.62      1.58      1.70         1.54
  YS02001607YS02001610        1.11      1.11      1.14      0.01         0.01
  YS02001610YS02001613        1.11      1.11      1.14      0.01         0.01
  YS02001613YS02001616        1.07      1.07      1.11      0.01         0.01
  YS02001616YS02001619        1.05      1.05      1.07      0.10         0.12
  YS02001619YS02001622        1.05      1.05      1.05      1.08         0.95
  YS02001622YS02001625        1.05      1.05      1.24      0.01         0.01
  YS02001625YS02001629        0.99      0.99      1.24      0.01         0.01
  YS02001629YS02163301        1.24      1.24      1.25      0.09         0.13
  YS02001633YS02163601        1.28      1.28      1.33      0.17         0.22
  YS02001641YS02001644        1.19      1.22      1.19      1.86         1.16
  YS02001644YS02001647        0.99      0.99      1.19      0.01         0.01
  YS02001647YS02001649        0.99      0.99      1.11      0.01         0.01
  YS02001649YS02001757        1.11      1.11      1.19      0.03         0.04
  YS02001652YS02001649        0.96      0.96      1.11      0.01         0.01
  YS02001655YS02001652        0.80      0.80      0.95      0.01         0.01
  YS02001658YS02001655        0.46      0.46      0.80      0.01         0.01
  YS02001661YS02001658        0.14      0.14      0.46      0.01         0.01
  YS02001664YS02001661        0.01      0.01      0.20      0.01         0.01
  YS02001745YS02001748        0.01      0.01      0.37      0.01         0.01
  YS02001748YS02001751        0.42      0.42      0.66      0.01         0.01
  YS02001751YS02001754        0.66      0.66      0.90      0.01         0.01
  YS02001754YS02001757        0.92      0.92      1.19      0.01         0.01
  YS02001757CaochengTiaoxuchi        1.19      1.19      2.36      0.49         0.49
  YS02001759YS02001757        1.11      1.11      1.19      0.01         0.01
  YS02001762YS02001759        1.08      1.08      1.11      0.01         0.01
  YS02001765YS02001762        1.04      1.04      1.08      0.01         0.01
  YS02001767YS02001765        1.01      1.01      1.04      0.01         0.01
  YS02001770YS02001767        1.00      1.01      1.01      0.67         0.60
  YS02001774YS02001770        0.99      0.99      1.06      0.01         0.01
  YS02001779YS02001774        0.89      0.89      1.06      0.01         0.01
  YS02001783YS02001784        0.72      0.75      0.72      0.97         0.72
  YS02001784YS02001785        0.58      0.72      0.58      1.28         0.58
  YS02001786YS02001788        0.01      0.58      0.01      1.13         0.01
  YS02001790YS02001791        0.01      0.01      0.01      0.70         0.01
  YS02001793JiankangQianchi        0.01      0.01      7.70      0.01         0.01
  YS02001882YS02001884        0.68      0.68      0.69      0.01         0.01
  YS02001884YS02001887        0.72      0.72      0.73      0.01         0.01
  YS02001887YS02001890        0.75      0.75      0.77      0.20         0.01
  YS02001890YS02001895        0.66      0.66      0.79      0.01         0.01
  YS02001895YS02001898        0.66      0.66      0.66      0.01         0.01
  YS02001898YS02001901        0.67      0.67      0.72      0.01         0.01
  YS02001901YS02001904        0.70      0.70      0.72      0.01         0.01
  YS02001904YS02001907        0.70      0.70      1.10      0.01         0.01
  YS02001907YS02006553        1.29      1.29      1.36      0.01         0.01
  YS02001910YS02001907        0.79      0.79      1.08      0.06         0.06
  YS02001915YS02001910        0.67      0.67      0.79      0.01         0.01
  YS02001918YS02001915        0.57      0.57      0.67      0.01         0.01
  YS02001920YS02001918        0.57      0.57      0.59      0.01         0.01
  YS02001923YS02001920        0.52      0.52      0.59      0.01         0.01
  YS02001926YS02001923        0.20      0.20      0.24      0.01         0.01
  YS02001929YS02001926        0.08      0.08      0.24      0.01         0.01
  YS02006553YS02006556        0.91      0.91      1.10      0.01         0.01
  YS02006556YS02006558        1.01      1.01      1.12      0.01         0.01
  YS02006558YS02006561        0.61      0.89      0.61      1.23         0.61
  YS02006561YS02001783        0.53      0.53      0.75      0.01         0.01
  YS02163301YS02001633        1.25      1.25      1.31      0.01         0.01
  YS02163601YS02164001        1.22      1.22      1.33      0.10         0.01
  YS02164001YS02001641        1.22      1.22      1.22      0.71         0.63
  
  
  ***************
  Pumping Summary
  ***************
  
  ---------------------------------------------------------------------------------------------------------
                                                  Min       Avg       Max     Total     Power    % Time Off
                        Percent   Number of      Flow      Flow      Flow    Volume     Usage    Pump Curve
  Pump                 Utilized   Start-Ups       LPS       LPS       LPS  10^6 ltr     Kw-hr    Low   High
  ---------------------------------------------------------------------------------------------------------
  CC-R1                   22.17           2      0.00    683.00    683.00     4.361     84.24    0.0    7.6
  CC-R2                   18.29           2      0.00    683.00    683.00     3.598     70.15    0.0    9.2
  CC-S1                   46.23           5      0.00    200.00    200.00     2.663     14.59    0.0    0.0
  CC-S2                   32.08           2      0.00    200.00    200.00     1.848      9.68    0.0    0.0
  JK-R1                   12.00          19      0.00   1000.00   1000.00     3.456     41.83    0.0    0.0
  JK-R2                    0.16           1      0.00   1000.00   1000.00     0.047      0.36    0.0    0.0
  JK-S                    18.26          24      0.00    300.00    300.00     1.577     20.70    0.0    0.0
  

  Analysis begun on:  Thu Apr 24 00:06:24 2025
  Analysis ended on:  Thu Apr 24 00:06:26 2025
  Total elapsed time: 00:00:02