
  EPA STORM WATER MANAGEMENT MODEL - VERSION 5.2 (Build 5.2.4)
  PYSWMM TOOLKIT API - VERSION v1.0 (2023-11-27)
  ------------------------------------------------------------

  WARNING 04: minimum elevation drop used for Conduit WS02004404WS02004405
  WARNING 03: negative offset ignored for Link YS02001904YS02001907
  
  ****************
  Analysis Options
  ****************
  Flow Units ............... LPS
  Process Models:
    Rainfall/Runoff ........ YES
    RDII ................... NO
    Snowmelt ............... NO
    Groundwater ............ NO
    Flow Routing ........... YES
    Ponding Allowed ........ NO
    Water Quality .......... NO
  Infiltration Method ...... HORTON
  Flow Routing Method ...... DYNWAVE
  Surcharge Method ......... EXTRAN
  Starting Date ............ 08/28/2015 08:00:00
  Ending Date .............. 08/28/2015 16:00:00
  Antecedent Dry Days ...... 8.0
  Report Time Step ......... 00:01:00
  Wet Time Step ............ 00:01:00
  Dry Time Step ............ 00:01:00
  Routing Time Step ........ 30.00 sec
  Variable Time Step ....... YES
  Maximum Trials ........... 8
  Number of Threads ........ 4
  Head Tolerance ........... 0.001500 m
  
  
  **************************        Volume         Depth
  Runoff Quantity Continuity     hectare-m            mm
  **************************     ---------       -------
  Total Precipitation ......         2.710        81.689
  Evaporation Loss .........         0.000         0.000
  Infiltration Loss ........         0.103         3.094
  Surface Runoff ...........         2.575        77.618
  Final Storage ............         0.033         0.996
  Continuity Error (%) .....        -0.023
  
  
  **************************        Volume        Volume
  Flow Routing Continuity        hectare-m      10^6 ltr
  **************************     ---------     ---------
  Dry Weather Inflow .......         0.025         0.251
  Wet Weather Inflow .......         2.574        25.744
  Groundwater Inflow .......         0.000         0.000
  RDII Inflow ..............         0.000         0.000
  External Inflow ..........         0.083         0.834
  External Outflow .........         1.587        15.872
  Flooding Loss ............         1.068        10.676
  Evaporation Loss .........         0.000         0.000
  Exfiltration Loss ........         0.000         0.000
  Initial Stored Volume ....         0.243         2.431
  Final Stored Volume ......         0.275         2.751
  Continuity Error (%) .....        -0.134
  
  
  *************************
  Highest Continuity Errors
  *************************
  Node YS02001884 (5.13%)
  Node YS02001583 (-3.98%)
  
  
  ***************************
  Time-Step Critical Elements
  ***************************
  Link WS02006252WS02006251 (45.92%)
  Link WS02004404WS02004405 (10.98%)
  Link WS02006238WS02006235 (10.10%)
  Link YS02001791YS02001793 (9.04%)
  Link WS02006235WS02006234 (7.29%)
  
  
  ********************************
  Highest Flow Instability Indexes
  ********************************
  Link WS02006113WS02006111 (44)
  Link WS02006111WS02006112 (25)
  Link WS02006252WS02006251 (16)
  Link WS02006238WS02006235 (15)
  Link YS02001607YS02001610 (12)
  
  
  *********************************
  Most Frequent Nonconverging Nodes
  *********************************
  Node CC-1 (12.57%)
  Node CC-2 (12.57%)
  Node JK-1 (12.57%)
  Node JK-2 (12.57%)
  Node WSC (12.57%)
  
  
  *************************
  Routing Time Step Summary
  *************************
  Minimum Time Step           :     0.00 sec
  Average Time Step           :     1.99 sec
  Maximum Time Step           :     6.43 sec
  % of Time in Steady State   :     0.00
  Average Iterations per Step :     3.10
  % of Steps Not Converging   :    12.57
  Time Step Frequencies       :
     30.000 - 13.228 sec      :     0.00 %
     13.228 -  5.833 sec      :     6.76 %
      5.833 -  2.572 sec      :    22.44 %
      2.572 -  1.134 sec      :    18.65 %
      1.134 -  0.500 sec      :    52.16 %
  
  
  ***************************
  Subcatchment Runoff Summary
  ***************************
  
  ------------------------------------------------------------------------------------------------------------------------------
                            Total      Total      Total      Total     Imperv       Perv      Total       Total     Peak  Runoff
                           Precip      Runon       Evap      Infil     Runoff     Runoff     Runoff      Runoff   Runoff   Coeff
  Subcatchment                 mm         mm         mm         mm         mm         mm         mm    10^6 ltr      LPS
  ------------------------------------------------------------------------------------------------------------------------------
  sub60                     81.69       0.00       0.00       1.84      70.69       7.97      78.66        1.03   759.21   0.963
  sub61                     81.69       0.00       0.00       2.67      66.68      11.22      77.90        1.43  1056.54   0.954
  sub62                     81.69       0.00       0.00       1.22      73.87       5.31      79.19        2.17  1480.99   0.969
  sub63                     81.69       0.00       0.00       4.95      57.03      18.75      75.78        1.72  1203.95   0.928
  sub64                     81.69       0.00       0.00       2.50      68.23       9.76      77.99        1.87  1225.00   0.955
  sub65                     81.69       0.00       0.00       2.16      69.82       8.46      78.28        2.16  1373.96   0.958
  sub66                     81.69       0.00       0.00       6.18      56.92      17.51      74.43        3.47  1846.91   0.911
  sub67                     81.69       0.00       0.00       1.18      73.92       5.36      79.28        1.47  1134.01   0.970
  sub68                     81.69       0.00       0.00       2.21      69.07       9.23      78.30        2.15  1523.79   0.959
  sub69                     81.69       0.00       0.00       1.99      69.33      10.26      79.59        2.95  1826.33   0.974
  sub70                     81.69       0.00       0.00       6.73      53.75      21.04      74.79        2.16  1038.85   0.916
  sub71                     81.69       0.00       0.00       1.26      73.83       5.28      79.11        2.07  1323.00   0.968
  sub72                     81.69       0.00       0.00       1.12      74.57       4.60      79.17        1.09   646.61   0.969
  
  
  ******************
  Node Depth Summary
  ******************
  
  ---------------------------------------------------------------------------------
                                 Average  Maximum  Maximum  Time of Max    Reported
                                   Depth    Depth      HGL   Occurrence   Max Depth
  Node                 Type       Meters   Meters   Meters  days hr:min      Meters
  ---------------------------------------------------------------------------------
  WS02003060           JUNCTION     0.23     0.38     5.31     0  02:26        0.38
  WS02003066           JUNCTION     0.19     0.30     5.85     0  02:28        0.30
  WS02003067           JUNCTION     0.50     0.70     6.02     0  02:25        0.70
  WS02003069           JUNCTION     0.26     0.43     5.01     0  02:29        0.43
  WS02003072           JUNCTION     0.32     0.50     4.87     0  02:28        0.50
  WS02003073           JUNCTION     0.18     0.30     4.36     0  02:30        0.30
  WS02004401           JUNCTION     0.58     0.85     6.85     0  02:25        0.85
  WS02004402           JUNCTION     0.61     0.88     6.84     0  02:25        0.88
  WS02004403           JUNCTION     0.63     0.89     6.82     0  02:26        0.89
  WS02004404           JUNCTION     0.71     0.96     6.81     0  02:26        0.96
  WS02004405           JUNCTION     0.70     0.95     6.80     0  02:26        0.95
  WS02004406           JUNCTION     0.72     0.96     6.79     0  02:26        0.95
  WS02004407           JUNCTION     0.17     0.29     6.61     0  02:26        0.29
  WS02004409           JUNCTION     0.39     0.66     6.43     0  02:26        0.66
  WS02004410           JUNCTION     0.41     0.68     6.40     0  02:26        0.68
  WS02004411           JUNCTION     0.43     0.69     6.37     0  02:27        0.69
  WS02004412           JUNCTION     0.45     0.70     6.34     0  02:27        0.70
  WS02004413           JUNCTION     0.61     0.86     6.33     0  02:27        0.86
  WS02006109           JUNCTION     0.65     1.41     8.03     0  02:54        1.18
  WS02006110           JUNCTION     0.65     1.53     8.11     0  02:54        1.02
  WS02006111           JUNCTION     0.18     0.29     6.99     0  02:58        0.29
  WS02006112           JUNCTION     0.73     1.08     6.96     0  02:42        1.05
  WS02006113           JUNCTION     0.27     0.46     7.35     0  02:57        0.46
  WS02006115           JUNCTION     0.47     0.75     6.89     0  02:20        0.75
  WS02006116           JUNCTION     0.55     0.83     6.87     0  02:30        0.83
  WS02006228           JUNCTION     0.64     1.55     8.20     0  02:31        1.23
  WS02006229           JUNCTION     0.61     1.61     8.30     0  02:31        1.20
  WS02006230           JUNCTION     0.62     1.95     8.70     0  02:31        1.29
  WS02006231           JUNCTION     0.43     1.46     8.59     0  02:31        1.04
  WS02006232           JUNCTION     0.56     1.71     8.75     0  02:01        1.22
  WS02006234           JUNCTION     0.49     1.83     8.99     0  02:20        1.21
  WS02006235           JUNCTION     0.52     1.89     9.05     0  02:01        1.33
  WS02006238           JUNCTION     0.55     1.89     9.03     0  02:01        1.34
  WS02006239           JUNCTION     0.52     1.71     8.91     0  02:01        1.32
  WS02006240           JUNCTION     0.49     1.88     9.18     0  04:11        1.58
  WS02006242           JUNCTION     0.56     1.55     8.82     0  02:01        1.55
  WS02006243           JUNCTION     0.47     1.48     8.90     0  02:34        1.48
  WS02006245           JUNCTION     0.47     1.32     8.81     0  02:20        1.27
  WS02006247           JUNCTION     0.49     1.26     8.76     0  02:34        1.26
  WS02006248           JUNCTION     0.45     1.10     8.69     0  02:02        1.10
  WS02006249           JUNCTION     0.49     1.09     8.69     0  02:02        1.09
  WS02006251           JUNCTION     0.48     1.43     9.10     0  02:02        1.28
  WS02006252           JUNCTION     0.35     1.50     9.74     0  00:00        0.96
  WS02006256           JUNCTION     0.99     2.35     9.28     0  00:00        2.35
  WSF200               JUNCTION     0.17     0.29     5.52     0  02:25        0.29
  YS02001580           JUNCTION     0.10     1.05     9.59     0  01:59        0.78
  YS02001583           JUNCTION     0.13     1.05     9.55     0  01:59        0.90
  YS02001586           JUNCTION     0.20     1.13     9.30     0  01:59        1.13
  YS02001590           JUNCTION     0.30     1.40     9.26     0  01:59        1.37
  YS02001593           JUNCTION     0.24     1.35     9.22     0  02:34        1.35
  YS02001596           JUNCTION     0.33     1.68     9.10     0  01:59        1.66
  YS02001600           JUNCTION     0.39     1.87     9.00     0  01:59        1.87
  YS02001601           JUNCTION     0.57     2.06     8.90     0  01:46        2.06
  YS02001602           JUNCTION     0.48     1.87     8.77     0  01:58        1.87
  YS02001605           JUNCTION     0.45     1.78     8.68     0  02:06        1.78
  YS02001607           JUNCTION     0.44     1.68     8.53     0  02:34        1.68
  YS02001610           JUNCTION     0.49     1.68     8.48     0  02:02        1.68
  YS02001613           JUNCTION     0.45     1.67     8.51     0  02:14        1.67
  YS02001616           JUNCTION     0.38     1.61     8.52     0  02:10        1.61
  YS02001619           JUNCTION     0.36     1.61     8.54     0  02:04        1.61
  YS02001622           JUNCTION     0.35     1.58     8.49     0  02:16        1.58
  YS02001625           JUNCTION     0.61     1.78     8.38     0  02:02        1.78
  YS02001629           JUNCTION     0.47     1.85     8.40     0  02:03        1.85
  YS02001633           JUNCTION     0.55     2.08     8.53     0  02:06        2.08
  YS02001641           JUNCTION     0.53     2.10     8.54     0  02:34        2.10
  YS02001644           JUNCTION     0.53     1.92     8.35     0  02:04        1.92
  YS02001647           JUNCTION     0.32     1.77     8.38     0  02:11        1.76
  YS02001649           JUNCTION     0.37     2.02     8.41     0  02:11        2.02
  YS02001652           JUNCTION     0.27     1.88     8.48     0  02:12        1.88
  YS02001655           JUNCTION     0.21     1.71     8.56     0  02:12        1.70
  YS02001658           JUNCTION     0.15     1.60     8.74     0  02:05        1.48
  YS02001661           JUNCTION     0.17     1.30     8.70     0  02:12        1.29
  YS02001664           JUNCTION     0.06     0.81     8.73     0  02:12        0.80
  YS02001745           JUNCTION     0.08     0.97     8.48     0  02:12        0.96
  YS02001748           JUNCTION     0.15     1.38     8.46     0  02:12        1.38
  YS02001751           JUNCTION     0.18     1.55     8.43     0  02:11        1.55
  YS02001754           JUNCTION     0.24     1.79     8.40     0  02:12        1.79
  YS02001757           JUNCTION     0.41     2.11     8.37     0  02:11        2.10
  YS02001759           JUNCTION     0.35     2.10     8.46     0  02:12        2.10
  YS02001762           JUNCTION     0.33     2.06     8.46     0  02:12        2.06
  YS02001765           JUNCTION     0.31     2.01     8.46     0  02:11        2.01
  YS02001767           JUNCTION     0.31     1.97     8.46     0  02:12        1.97
  YS02001770           JUNCTION     0.32     1.95     8.44     0  02:04        1.95
  YS02001774           JUNCTION     0.38     2.05     8.47     0  02:04        2.05
  YS02001779           JUNCTION     0.22     1.68     8.37     0  02:03        1.68
  YS02001783           JUNCTION     0.24     1.25     7.39     0  02:11        1.24
  YS02001784           JUNCTION     0.25     1.14     7.20     0  02:11        1.12
  YS02001786           JUNCTION     0.21     0.89     6.92     0  02:11        0.88
  YS02001788           JUNCTION     0.15     0.63     6.60     0  02:11        0.62
  YS02001790           JUNCTION     0.18     0.73     6.37     0  02:18        0.72
  YS02001791           JUNCTION     0.11     0.44     5.91     0  02:14        0.43
  YS02001793           JUNCTION     0.06     0.30     5.14     0  02:15        0.29
  YS02001882           JUNCTION     0.31     1.74     8.46     0  02:02        1.74
  YS02001884           JUNCTION     0.40     1.82     8.44     0  02:06        1.82
  YS02001887           JUNCTION     0.47     1.94     8.48     0  02:06        1.94
  YS02001890           JUNCTION     0.50     1.81     8.32     0  02:03        1.81
  YS02001895           JUNCTION     0.28     1.58     8.33     0  02:04        1.58
  YS02001898           JUNCTION     0.28     1.59     8.33     0  02:03        1.59
  YS02001901           JUNCTION     0.40     1.71     8.31     0  02:03        1.70
  YS02001904           JUNCTION     0.38     1.66     8.29     0  02:03        1.65
  YS02001907           JUNCTION     0.69     1.96     8.25     0  02:03        1.96
  YS02001910           JUNCTION     0.50     2.01     8.52     0  02:13        2.01
  YS02001915           JUNCTION     0.31     2.00     8.72     0  02:13        2.00
  YS02001918           JUNCTION     0.18     1.81     8.88     0  02:04        1.70
  YS02001920           JUNCTION     0.25     2.12     9.12     0  02:04        1.78
  YS02001923           JUNCTION     0.13     2.03     9.29     0  02:04        1.55
  YS02001926           JUNCTION     0.17     1.90     9.35     0  02:04        1.39
  YS02001929           JUNCTION     0.10     1.78     9.47     0  02:04        1.17
  YS02006553           JUNCTION     0.70     2.19     8.47     0  02:34        2.19
  YS02006556           JUNCTION     0.67     2.30     8.61     0  02:34        2.30
  YS02006558           JUNCTION     0.71     2.15     8.42     0  02:34        2.15
  YS02006561           JUNCTION     0.15     0.92     7.58     0  02:11        0.91
  YS02163301           JUNCTION     0.49     1.95     8.47     0  02:04        1.94
  YS02163601           JUNCTION     0.59     2.08     8.48     0  02:04        2.08
  YS02164001           JUNCTION     0.52     2.10     8.56     0  02:34        2.10
  CC-1                 OUTFALL      0.00     0.00     0.00     0  00:00        0.00
  CC-2                 OUTFALL      0.00     0.00     0.00     0  00:00        0.00
  JK-1                 OUTFALL      0.00     0.00     0.00     0  00:00        0.00
  JK-2                 OUTFALL      0.00     0.00     0.00     0  00:00        0.00
  WSC                  OUTFALL      0.18     0.30     0.97     0  02:30        0.30
  CC-storage           STORAGE      1.00     1.87     7.37     0  02:39        1.87
  JK-storage           STORAGE      3.18     4.24     5.04     0  02:05        4.22
  
  
  *******************
  Node Inflow Summary
  *******************
  
  -------------------------------------------------------------------------------------------------
                                  Maximum  Maximum                  Lateral       Total        Flow
                                  Lateral    Total  Time of Max      Inflow      Inflow     Balance
                                   Inflow   Inflow   Occurrence      Volume      Volume       Error
  Node                 Type           LPS      LPS  days hr:min    10^6 ltr    10^6 ltr     Percent
  -------------------------------------------------------------------------------------------------
  WS02003060           JUNCTION     16.53   550.24     0  02:26       0.476        5.67       0.036
  WS02003066           JUNCTION      0.00   533.08     0  02:28           0        5.19       0.025
  WS02003067           JUNCTION      0.00   533.04     0  02:27           0         5.2       0.078
  WS02003069           JUNCTION      0.32   549.86     0  02:28     0.00922        5.67       0.063
  WS02003072           JUNCTION      0.00   549.51     0  02:29           0        5.67       0.115
  WS02003073           JUNCTION      1.82   551.44     0  02:29      0.0524        5.71       0.091
  WS02004401           JUNCTION      0.00   538.01     0  02:49           0        5.29       0.187
  WS02004402           JUNCTION      0.00   536.86     0  02:22           0        5.28       0.191
  WS02004403           JUNCTION      0.00   536.60     0  02:22           0        5.27       0.187
  WS02004404           JUNCTION      0.16   535.98     0  02:26     0.00467        5.27       0.157
  WS02004405           JUNCTION      0.04   535.83     0  02:26      0.0011        5.26       0.232
  WS02004406           JUNCTION      0.00   535.79     0  02:23           0        5.25       0.389
  WS02004407           JUNCTION      0.00   535.30     0  02:26           0        5.23       0.018
  WS02004409           JUNCTION      0.00   535.03     0  02:26           0        5.23       0.043
  WS02004410           JUNCTION      0.00   534.17     0  02:26           0        5.22       0.076
  WS02004411           JUNCTION      0.00   533.77     0  02:27           0        5.22       0.100
  WS02004412           JUNCTION      0.00   533.18     0  02:26           0        5.21       0.135
  WS02004413           JUNCTION      0.00   533.30     0  02:27           0        5.21       0.247
  WS02006109           JUNCTION      1.23   564.08     0  03:09      0.0354        5.34       0.154
  WS02006110           JUNCTION      0.00   563.88     0  02:31           0        5.33       0.115
  WS02006111           JUNCTION      0.00   561.08     0  02:04           0        5.32       0.010
  WS02006112           JUNCTION      0.00   544.29     0  02:58           0        5.32       0.344
  WS02006113           JUNCTION      0.00   575.49     0  02:03           0        5.32       0.033
  WS02006115           JUNCTION      0.00   548.33     0  02:34           0         5.3       0.121
  WS02006116           JUNCTION      0.00   539.92     0  02:58           0         5.3       0.089
  WS02006228           JUNCTION      0.00   562.08     0  03:09           0        5.31       0.081
  WS02006229           JUNCTION      0.00   561.72     0  03:09           0        5.31       0.100
  WS02006230           JUNCTION     10.28   596.07     0  03:11       0.296        5.32       0.065
  WS02006231           JUNCTION      0.00   607.60     0  02:02           0        5.01      -0.094
  WS02006232           JUNCTION      0.00   603.19     0  02:02           0        5.03       0.225
  WS02006234           JUNCTION      0.00   585.06     0  02:02           0        5.01      -0.223
  WS02006235           JUNCTION      0.00   564.34     0  02:41           0         5.1       0.187
  WS02006238           JUNCTION      0.00   424.74     0  02:45           0        4.09      -0.130
  WS02006239           JUNCTION      0.00   423.12     0  03:10           0        4.05      -0.083
  WS02006240           JUNCTION      0.00   419.93     0  03:10           0        4.02      -0.039
  WS02006242           JUNCTION      0.00   419.61     0  02:45           0        3.99      -0.008
  WS02006243           JUNCTION      0.00   419.62     0  02:45           0        3.97       0.042
  WS02006245           JUNCTION      0.00   419.85     0  02:45           0        3.97       0.191
  WS02006247           JUNCTION      0.00   420.04     0  02:45           0        3.97       0.002
  WS02006248           JUNCTION      0.00   419.99     0  02:45           0        3.98       0.054
  WS02006249           JUNCTION      0.00   459.02     0  00:00           0        4.22       0.207
  WS02006251           JUNCTION      0.08   407.48     0  03:11     0.00222        4.22      -0.027
  WS02006252           JUNCTION      0.00   400.00     0  00:00           0        4.21      -0.016
  WS02006256           JUNCTION      0.00   300.00     0  00:00           0        1.52      -0.912
  WSF200               JUNCTION      0.00   533.12     0  02:28           0        5.19       0.007
  YS02001580           JUNCTION      0.00    76.90     0  01:59           0     0.00412       0.273
  YS02001583           JUNCTION      0.00   130.89     0  01:58           0      0.0154      -3.827
  YS02001586           JUNCTION   1038.85  1038.92     0  02:15        2.16        2.17       0.046
  YS02001590           JUNCTION      0.00   318.99     0  02:06           0        1.48      -0.018
  YS02001593           JUNCTION      0.00   318.46     0  02:06           0        1.48       0.005
  YS02001596           JUNCTION      0.00   318.21     0  02:19           0        1.48      -0.017
  YS02001600           JUNCTION      0.00   318.02     0  02:19           0        1.49       0.005
  YS02001601           JUNCTION   1826.33  2143.76     0  02:14        2.95        4.43       0.023
  YS02001602           JUNCTION      0.00   500.76     0  01:58           0        2.44       0.019
  YS02001605           JUNCTION      0.00   500.06     0  01:58           0        2.29       0.024
  YS02001607           JUNCTION      0.00   498.85     0  01:58           0        2.29       0.087
  YS02001610           JUNCTION      0.00   952.50     0  02:17           0        2.78       0.085
  YS02001613           JUNCTION      0.00   616.46     0  02:17           0        2.17       0.075
  YS02001616           JUNCTION      0.00   616.17     0  02:17           0        2.17       0.018
  YS02001619           JUNCTION   1846.91  1846.91     0  02:14        3.47        5.15      -0.002
  YS02001622           JUNCTION      0.00  1053.98     0  02:16           0        4.62       0.001
  YS02001625           JUNCTION      0.00  1504.75     0  02:17           0        5.01       0.202
  YS02001629           JUNCTION      0.00   914.31     0  02:02           0        3.62       0.007
  YS02001633           JUNCTION   1374.16  1374.16     0  02:14        2.16         5.3       0.065
  YS02001641           JUNCTION      0.00  1305.89     0  02:02           0        4.82       0.057
  YS02001644           JUNCTION   1225.04  2180.67     0  02:13        1.87        6.74       0.048
  YS02001647           JUNCTION      0.00  1663.86     0  02:02           0        5.63       0.010
  YS02001649           JUNCTION      0.00  1831.05     0  02:01           0         7.3       0.001
  YS02001652           JUNCTION      0.00  1218.60     0  02:13           0        1.73      -0.063
  YS02001655           JUNCTION      0.15  1218.38     0  02:13     0.00443        1.73       0.031
  YS02001658           JUNCTION      0.00  1218.06     0  02:13           0        1.72      -0.056
  YS02001661           JUNCTION      0.00  1217.35     0  02:13           0        1.72       0.017
  YS02001664           JUNCTION   1203.95  1203.95     0  02:13        1.72        1.72      -0.011
  YS02001745           JUNCTION    759.22   759.22     0  02:13        1.03        1.03       0.129
  YS02001748           JUNCTION      0.04   769.50     0  02:13      0.0013        1.03      -0.225
  YS02001751           JUNCTION      0.01   769.50     0  02:13    0.000317        1.04       0.082
  YS02001754           JUNCTION      0.26   771.15     0  02:13     0.00749        1.05      -0.133
  YS02001757           JUNCTION      0.00  3084.30     0  02:11           0        11.4       0.007
  YS02001759           JUNCTION   1056.58  1348.90     0  02:13        1.43        3.07      -0.012
  YS02001762           JUNCTION      0.00   695.60     0  02:07           0        1.64       0.001
  YS02001765           JUNCTION      0.00   696.62     0  02:07           0        1.64       0.007
  YS02001767           JUNCTION      0.54   697.60     0  02:07      0.0154        1.64      -0.001
  YS02001770           JUNCTION   1481.14  1481.14     0  02:13        2.17        2.22      -0.007
  YS02001774           JUNCTION      0.00   851.15     0  02:15           0       0.555       0.150
  YS02001779           JUNCTION      0.01   851.37     0  02:15    0.000144       0.508      -0.158
  YS02001783           JUNCTION      0.00  1170.74     0  02:13           0        4.48       0.006
  YS02001784           JUNCTION      1.06  1171.59     0  02:12      0.0305        4.51       0.011
  YS02001786           JUNCTION      0.06  1171.46     0  02:13     0.00162        4.52       0.017
  YS02001788           JUNCTION      0.07  1172.79     0  02:12     0.00204        4.52       0.006
  YS02001790           JUNCTION      0.15  1183.67     0  02:11     0.00446        4.52       0.030
  YS02001791           JUNCTION      0.00  1287.47     0  02:19           0        4.52      -0.038
  YS02001793           JUNCTION      0.00  1248.39     0  02:09           0        4.52       0.004
  YS02001882           JUNCTION      0.00    42.01     0  02:01           0       0.013       4.679
  YS02001884           JUNCTION      0.00    45.60     0  02:00           0      0.0493       5.403
  YS02001887           JUNCTION   1134.46  1134.78     0  02:13        1.49        1.52       0.284
  YS02001890           JUNCTION      0.00  1134.90     0  02:13           0        1.48       0.343
  YS02001895           JUNCTION      0.00   518.43     0  02:19           0        1.24       0.139
  YS02001898           JUNCTION      0.00   518.82     0  02:19           0        1.24       0.016
  YS02001901           JUNCTION      0.00   518.32     0  02:12           0        1.24       0.278
  YS02001904           JUNCTION      0.00   518.41     0  02:19           0        1.24       0.221
  YS02001907           JUNCTION      0.00  2832.03     0  02:14           0        4.56       0.400
  YS02001910           JUNCTION      0.00  1974.17     0  02:14           0        3.24       0.219
  YS02001915           JUNCTION   1323.02  1974.14     0  02:14        2.07        3.27       0.049
  YS02001918           JUNCTION      0.00   651.74     0  02:14           0        1.22       0.013
  YS02001920           JUNCTION      2.87   651.42     0  02:14      0.0827        1.21       0.065
  YS02001923           JUNCTION      0.04   649.00     0  02:14     0.00109        1.11      -0.040
  YS02001926           JUNCTION      0.05   647.98     0  02:14      0.0015         1.1      -0.009
  YS02001929           JUNCTION    646.61   646.61     0  02:14        1.09        1.09      -0.071
  YS02006553           JUNCTION      0.00   803.10     0  02:31           0        2.52       0.475
  YS02006556           JUNCTION      0.00   801.94     0  02:31           0        2.52       0.322
  YS02006558           JUNCTION   1524.67  1524.67     0  02:13        2.18         4.6       0.078
  YS02006561           JUNCTION      0.00  1170.42     0  02:13           0        4.48      -0.005
  YS02163301           JUNCTION      0.00   914.34     0  02:02           0        3.61       0.043
  YS02163601           JUNCTION      0.11  1308.13     0  02:02     0.00317        4.82       0.102
  YS02164001           JUNCTION      0.00  1307.45     0  02:02           0        4.82       0.044
  CC-1                 OUTFALL       0.00   683.00     0  00:00           0         3.9       0.000
  CC-2                 OUTFALL       0.00   683.00     0  00:00           0        3.27       0.000
  JK-1                 OUTFALL       0.00  1000.00     0  00:00           0        2.94       0.000
  JK-2                 OUTFALL       0.00  1000.00     0  00:00           0      0.0484       0.000
  WSC                  OUTFALL       0.00   551.27     0  02:30           0        5.71       0.000
  CC-storage           STORAGE       0.00  3084.20     0  02:11           0        13.6      -0.057
  JK-storage           STORAGE       0.00  1248.76     0  02:10           0        4.67       0.044
  
  
  **********************
  Node Surcharge Summary
  **********************
  
  Surcharging occurs when water rises above the top of the highest conduit.
  ---------------------------------------------------------------------
                                               Max. Height   Min. Depth
                                   Hours       Above Crown    Below Rim
  Node                 Type      Surcharged         Meters       Meters
  ---------------------------------------------------------------------
  WS02006109           JUNCTION        2.23          0.588        1.232
  WS02006110           JUNCTION        0.71          0.617        1.233
  WS02006112           JUNCTION        0.90          0.077        1.603
  WS02006228           JUNCTION        2.23          0.719        1.481
  WS02006229           JUNCTION        2.23          0.811        1.639
  WS02006230           JUNCTION        0.72          0.873        0.697
  WS02006231           JUNCTION        0.95          0.753        0.777
  WS02006232           JUNCTION        2.24          1.008        0.472
  WS02006234           JUNCTION        1.42          1.112        0.128
  WS02006235           JUNCTION        2.16          1.178        0.112
  WS02006238           JUNCTION        2.22          1.171        0.259
  WS02006239           JUNCTION        2.19          0.966        0.324
  WS02006240           JUNCTION        2.22          1.175        0.215
  WS02006242           JUNCTION        2.26          0.820        0.000
  WS02006243           JUNCTION        2.16          0.770        0.000
  WS02006245           JUNCTION        2.16          0.611        0.239
  WS02006247           JUNCTION        2.17          0.555        0.205
  WS02006248           JUNCTION        2.16          0.380        0.000
  WS02006249           JUNCTION        2.16          0.390        0.000
  WS02006251           JUNCTION        1.08          0.403        0.777
  WS02006252           JUNCTION        2.30          1.100        0.000
  WS02006256           JUNCTION        5.54          2.050        0.000
  YS02001580           JUNCTION        0.76          0.450        0.000
  YS02001583           JUNCTION        0.77          0.415        0.085
  YS02001586           JUNCTION        0.90          0.510        0.000
  YS02001590           JUNCTION        0.98          0.750        0.000
  YS02001593           JUNCTION        0.99          0.735        0.105
  YS02001596           JUNCTION        1.11          0.953        0.117
  YS02001600           JUNCTION        1.26          1.190        0.000
  YS02001601           JUNCTION        1.57          1.440        0.000
  YS02001602           JUNCTION        1.47          1.270        0.000
  YS02001605           JUNCTION        1.42          1.180        0.000
  YS02001607           JUNCTION        0.99          0.680        0.000
  YS02001610           JUNCTION        1.02          0.680        0.000
  YS02001613           JUNCTION        0.98          0.671        0.029
  YS02001616           JUNCTION        0.94          0.610        0.000
  YS02001619           JUNCTION        0.92          0.610        0.000
  YS02001622           JUNCTION        0.93          0.585        0.035
  YS02001625           JUNCTION        1.12          0.780        0.000
  YS02001629           JUNCTION        0.88          0.470        0.000
  YS02001633           JUNCTION        1.15          1.060        0.000
  YS02001641           JUNCTION        1.10          1.100        0.000
  YS02001644           JUNCTION        1.08          0.920        0.000
  YS02001647           JUNCTION        0.86          0.774        0.126
  YS02001649           JUNCTION        1.00          1.024        0.026
  YS02001652           JUNCTION        0.81          0.855        0.275
  YS02001655           JUNCTION        0.63          0.707        0.493
  YS02001658           JUNCTION        0.37          0.600        0.700
  YS02001661           JUNCTION        0.13          0.229        1.161
  YS02001748           JUNCTION        0.30          0.304        0.886
  YS02001751           JUNCTION        0.50          0.551        0.649
  YS02001754           JUNCTION        0.73          0.738        0.412
  YS02001757           JUNCTION        1.07          1.105        0.105
  YS02001759           JUNCTION        0.99          1.097        0.113
  YS02001762           JUNCTION        0.96          1.061        0.089
  YS02001765           JUNCTION        0.91          1.010        0.090
  YS02001767           JUNCTION        0.88          0.968        0.062
  YS02001770           JUNCTION        0.85          0.920        0.000
  YS02001774           JUNCTION        0.94          1.050        0.000
  YS02001779           JUNCTION        0.71          0.680        0.000
  YS02001783           JUNCTION        0.65          0.447        1.153
  YS02001784           JUNCTION        0.62          0.335        1.155
  YS02001786           JUNCTION        0.51          0.085        1.345
  YS02001882           JUNCTION        0.59          0.742        0.088
  YS02001884           JUNCTION        0.60          0.761        0.109
  YS02001887           JUNCTION        0.64          0.894        0.056
  YS02001890           JUNCTION        0.65          0.760        0.000
  YS02001895           JUNCTION        0.58          0.584        0.166
  YS02001898           JUNCTION        0.57          0.565        0.175
  YS02001901           JUNCTION        0.62          0.705        0.165
  YS02001904           JUNCTION        0.61          0.657        0.193
  YS02001907           JUNCTION        0.90          0.950        0.000
  YS02001910           JUNCTION        0.68          1.012        0.088
  YS02001915           JUNCTION        0.59          1.000        0.000
  YS02001918           JUNCTION        0.49          0.810        0.000
  YS02001920           JUNCTION        0.51          1.117        0.023
  YS02001923           JUNCTION        0.20          0.820        0.000
  YS02001926           JUNCTION        0.24          0.900        0.000
  YS02001929           JUNCTION        0.09          0.780        0.000
  YS02006553           JUNCTION        0.91          1.190        0.000
  YS02006556           JUNCTION        0.79          1.262        0.088
  YS02006558           JUNCTION        0.77          1.053        0.347
  YS02006561           JUNCTION        0.46          0.117        1.033
  YS02163301           JUNCTION        1.13          0.952        0.078
  YS02163601           JUNCTION        1.19          1.080        0.000
  YS02164001           JUNCTION        1.10          1.100        0.000
  
  
  *********************
  Node Flooding Summary
  *********************
  
  Flooding refers to all water that overflows a node, whether it ponds or not.
  --------------------------------------------------------------------------
                                                             Total   Maximum
                                 Maximum   Time of Max       Flood    Ponded
                        Hours       Rate    Occurrence      Volume     Depth
  Node                 Flooded       LPS   days hr:min    10^6 ltr    Meters
  --------------------------------------------------------------------------
  WS02006242              0.01     42.69      0  04:11       0.000     0.000
  WS02006243              0.01      0.08      0  02:34       0.000     0.000
  WS02006248              0.02     22.03      0  02:05       0.001     0.000
  WS02006249              1.02     82.07      0  03:09       0.235     0.000
  WS02006252              0.01    245.63      0  00:00       0.000     0.000
  WS02006256              1.41    293.19      0  00:00       0.480     0.000
  YS02001580              0.01     52.39      0  01:59       0.000     0.000
  YS02001586              0.62    721.23      0  02:15       0.676     0.000
  YS02001590              0.01      6.61      0  01:59       0.000     0.000
  YS02001600              0.01      2.00      0  01:59       0.000     0.000
  YS02001601              0.83   1745.95      0  02:14       1.988     0.000
  YS02001602              0.72     62.06      0  02:19       0.150     0.000
  YS02001605              0.01      0.16      0  02:06       0.000     0.000
  YS02001607              0.01      0.25      0  02:34       0.000     0.000
  YS02001610              0.65    952.20      0  02:17       1.095     0.000
  YS02001616              0.04      2.47      0  02:34       0.000     0.000
  YS02001619              0.11    193.18      0  02:14       0.044     0.000
  YS02001625              0.62   1504.63      0  02:17       1.861     0.000
  YS02001629              0.23    262.01      0  02:14       0.087     0.000
  YS02001633              0.01      0.38      0  02:06       0.000     0.000
  YS02001641              0.01      0.28      0  02:34       0.000     0.000
  YS02001644              0.33   2180.28      0  02:13       1.154     0.000
  YS02001770              0.09    352.82      0  02:13       0.061     0.000
  YS02001774              0.01     42.59      0  02:04       0.000     0.000
  YS02001779              0.29    851.08      0  02:15       0.489     0.000
  YS02001890              0.25    617.96      0  02:13       0.236     0.000
  YS02001907              0.44   2831.66      0  02:14       2.119     0.000
  YS02001915              0.01      1.08      0  02:13       0.000     0.000
  YS02001918              0.01     79.29      0  02:04       0.001     0.000
  YS02001923              0.01     65.32      0  02:04       0.000     0.000
  YS02001926              0.01     47.05      0  02:04       0.000     0.000
  YS02001929              0.01    225.23      0  02:04       0.001     0.000
  YS02006553              0.01      0.25      0  02:34       0.000     0.000
  YS02163601              0.01     33.93      0  02:04       0.000     0.000
  YS02164001              0.01      0.62      0  02:34       0.000     0.000
  
  
  **********************
  Storage Volume Summary
  **********************
  
  ------------------------------------------------------------------------------------------------
                         Average    Avg   Evap  Exfil     Maximum    Max    Time of Max    Maximum
                          Volume   Pcnt   Pcnt   Pcnt      Volume   Pcnt     Occurrence    Outflow
  Storage Unit           1000 m³   Full   Loss   Loss     1000 m³   Full    days hr:min        LPS
  ------------------------------------------------------------------------------------------------
  CC-storage               2.787   43.5    0.0    0.0       5.217   81.4       0  02:39    1783.53
  JK-storage               0.160   54.9    0.0    0.0       0.213   73.1       0  02:05    2300.00
  
  
  ***********************
  Outfall Loading Summary
  ***********************
  
  -----------------------------------------------------------
                         Flow       Avg       Max       Total
                         Freq      Flow      Flow      Volume
  Outfall Node           Pcnt       LPS       LPS    10^6 ltr
  -----------------------------------------------------------
  CC-1                  21.44    683.00    683.00       3.900
  CC-2                  18.19    683.00    683.00       3.273
  JK-1                  12.09   1000.00   1000.00       2.941
  JK-2                   0.15   1000.00   1000.00       0.048
  WSC                   99.96    257.99    551.27       5.710
  -----------------------------------------------------------
  System                30.37   3623.99   3366.23      15.872
  
  
  ********************
  Link Flow Summary
  ********************
  
  -----------------------------------------------------------------------------
                                 Maximum  Time of Max   Maximum    Max/    Max/
                                  |Flow|   Occurrence   |Veloc|    Full    Full
  Link                 Type          LPS  days hr:min     m/sec    Flow   Depth
  -----------------------------------------------------------------------------
  1                    CONDUIT    551.27     0  02:30      2.82    0.19    0.30
  WS02003060WS02003069 CONDUIT    549.54     0  02:28      1.64    0.22    0.34
  WS02003066WSF200     CONDUIT    533.12     0  02:28      2.85    0.09    0.22
  WS02003067WS02003066 CONDUIT    533.08     0  02:28      1.20    0.17    0.41
  WS02003069WS02003072 CONDUIT    549.51     0  02:29      1.37    0.26    0.39
  WS02003072WS02003073 CONDUIT    549.62     0  02:29      1.43    1.19    0.37
  WS02004401WS02004402 CONDUIT    536.86     0  02:22      1.07    0.64    0.86
  WS02004402WS02004403 CONDUIT    536.60     0  02:22      1.09    0.77    0.88
  WS02004403WS02004404 CONDUIT    535.82     0  02:26      1.06    0.39    0.93
  WS02004404WS02004405 CONDUIT    535.79     0  02:26      1.24    5.25    0.96
  WS02004405WS02004406 CONDUIT    535.79     0  02:23      1.20    1.06    0.95
  WS02004406WS02004407 CONDUIT    535.30     0  02:26      1.04    0.24    0.63
  WS02004407WS02004409 CONDUIT    535.03     0  02:26      1.55    0.19    0.48
  WS02004409WS02004410 CONDUIT    534.17     0  02:26      1.02    0.69    0.67
  WS02004410WS02004411 CONDUIT    533.77     0  02:27      0.94    0.73    0.68
  WS02004411WS02004412 CONDUIT    533.18     0  02:26      0.92    0.76    0.69
  WS02004412WS02004413 CONDUIT    533.30     0  02:27      0.82    0.36    0.78
  WS02004413WS02003067 CONDUIT    533.04     0  02:27      1.11    0.23    0.59
  WS02006109WS02006110 CONDUIT    563.88     0  02:31      1.12    1.08    1.00
  WS02006110WS02006113 CONDUIT    575.49     0  02:03      1.40    0.52    0.79
  WS02006111WS02006112 CONDUIT    544.29     0  02:58      1.85    0.26    0.67
  WS02006112WS02006115 CONDUIT    548.33     0  02:34      0.83    0.32    0.87
  WS02006113WS02006111 CONDUIT    561.08     0  02:04      2.48    0.67    0.46
  WS02006115WS02006116 CONDUIT    539.92     0  02:58      1.11    0.69    0.76
  WS02006116WS02004401 CONDUIT    538.01     0  02:49      1.07    0.74    0.84
  WS02006228WS02006109 CONDUIT    562.85     0  03:09      1.12    2.46    1.00
  WS02006229WS02006228 CONDUIT    562.08     0  03:09      1.12    1.86    1.00
  WS02006230WS02006229 CONDUIT    561.72     0  03:09      1.46   12.50    1.00
  WS02006231WS02006230 CONDUIT    585.79     0  03:11      1.59    8.89    1.00
  WS02006232WS02006231 CONDUIT    607.60     0  02:02      1.64    1.27    1.00
  WS02006234WS02006232 CONDUIT    603.19     0  02:02      1.57    1.22    1.00
  WS02006235WS02006234 CONDUIT    585.06     0  02:02      1.52    6.17    1.00
  WS02006238WS02006235 CONDUIT    426.02     0  03:10      1.51    0.95    1.00
  WS02006239WS02006238 CONDUIT    424.74     0  02:45      1.10    1.36    1.00
  WS02006240WS02006239 CONDUIT    423.12     0  03:10      1.24    1.33    1.00
  WS02006242WS02006240 CONDUIT    419.93     0  03:10      1.13    1.67    1.00
  WS02006243WS02006242 CONDUIT    419.61     0  02:45      1.40    0.90    1.00
  WS02006245WS02006243 CONDUIT    419.62     0  02:45      1.45    1.24    1.00
  WS02006247WS02006245 CONDUIT    419.85     0  02:45      1.43    3.33    1.00
  WS02006248WS02006247 CONDUIT    420.04     0  02:45      1.44    0.91    1.00
  WS02006249WS02006248 CONDUIT    419.99     0  02:45      1.36    2.30    1.00
  WS02006251WS02006249 CONDUIT    459.02     0  00:00      1.99    1.32    1.00
  WS02006252WS02006251 CONDUIT    407.40     0  03:11      3.87    1.50    1.00
  WS02006256WS02006235 CONDUIT    288.91     0  00:00      4.23    3.06    1.00
  WSF200WS02003060     CONDUIT    533.71     0  02:26      2.06    0.12    0.28
  YS02001580YS02001583 CONDUIT     76.90     0  01:59      0.56    0.30    1.00
  YS02001583YS02001586 CONDUIT    130.89     0  01:58      0.54    0.20    1.00
  YS02001586YS02001590 CONDUIT    318.99     0  02:06      1.25    0.56    1.00
  YS02001590YS02001593 CONDUIT    318.46     0  02:06      1.13    2.00    1.00
  YS02001593YS02001596 CONDUIT    318.21     0  02:19      1.72    0.50    1.00
  YS02001596YS02001600 CONDUIT    318.02     0  02:19      1.27    0.62    1.00
  YS02001600YS02001601 CONDUIT    318.12     0  02:06      1.13    0.55    1.00
  YS02001601YS02001602 CONDUIT    500.76     0  01:58      1.77    1.81    1.00
  YS02001602YS02001605 CONDUIT    500.06     0  01:58      1.77   10.58    1.00
  YS02001605YS02001607 CONDUIT    498.85     0  01:58      1.76    2.74    1.00
  YS02001607YS02001610 CONDUIT    499.22     0  01:57      0.64    0.47    1.00
  YS02001610YS02001613 CONDUIT    616.63     0  02:17      0.79    0.71    1.00
  YS02001613YS02001616 CONDUIT    616.46     0  02:17      0.78    0.53    1.00
  YS02001616YS02001619 CONDUIT    616.17     0  02:17      0.78    1.07    1.00
  YS02001619YS02001622 CONDUIT   1053.98     0  02:16      1.34    1.55    1.00
  YS02001622YS02001625 CONDUIT   1053.60     0  02:15      1.34    0.56    1.00
  YS02001625YS02001629 CONDUIT    914.31     0  02:02      1.16    0.43    1.00
  YS02001629YS02163301 CONDUIT    914.34     0  02:02      1.16    1.13    1.00
  YS02001633YS02163601 CONDUIT   1308.02     0  02:02      1.67    1.37    1.00
  YS02001641YS02001644 CONDUIT   1305.25     0  02:02      1.66    4.22    1.00
  YS02001644YS02001647 CONDUIT   1663.86     0  02:02      2.16    0.98    1.00
  YS02001647YS02001649 CONDUIT   1670.13     0  02:02      2.29    0.88    1.00
  YS02001649YS02001757 CONDUIT   1795.40     0  02:01      2.38    1.09    1.00
  YS02001652YS02001649 CONDUIT   1219.60     0  02:13      1.55    0.60    1.00
  YS02001655YS02001652 CONDUIT   1218.60     0  02:13      1.55    0.59    1.00
  YS02001658YS02001655 CONDUIT   1218.23     0  02:13      1.84    0.52    1.00
  YS02001661YS02001658 CONDUIT   1218.06     0  02:13      2.20    0.48    1.00
  YS02001664YS02001661 CONDUIT   1217.35     0  02:13      2.12    0.38    0.90
  YS02001745YS02001748 CONDUIT    769.45     0  02:13      2.04    0.30    0.98
  YS02001748YS02001751 CONDUIT    769.49     0  02:13      1.61    0.39    1.00
  YS02001751YS02001754 CONDUIT    770.89     0  02:13      1.42    0.37    1.00
  YS02001754YS02001757 CONDUIT    770.21     0  02:13      0.98    0.31    1.00
  YS02001757CaochengTiaoxuchi CONDUIT   3084.20     0  02:11      3.93    1.33    1.00
  YS02001759YS02001757 CONDUIT   1347.83     0  02:13      1.72    0.96    1.00
  YS02001762YS02001759 CONDUIT    697.73     0  02:07      0.89    0.80    1.00
  YS02001765YS02001762 CONDUIT    695.60     0  02:07      0.89    0.65    1.00
  YS02001767YS02001765 CONDUIT    696.62     0  02:07      0.89    0.88    1.00
  YS02001770YS02001767 CONDUIT    697.07     0  02:07      0.89    2.76    1.00
  YS02001774YS02001770 CONDUIT    851.15     0  02:15      1.08    0.54    1.00
  YS02001779YS02001774 CONDUIT    851.36     0  02:15      1.08    0.43    1.00
  YS02001783YS02001784 CONDUIT   1170.53     0  02:12      2.33    1.61    1.00
  YS02001784YS02001785 CONDUIT   1171.40     0  02:13      2.33    2.73    1.00
  YS02001786YS02001788 CONDUIT   1172.72     0  02:12      2.50    2.26    0.89
  YS02001788YS02001790 CONDUIT   1183.51     0  02:11      2.72    0.87    0.84
  YS02001790YS02001791 CONDUIT   1287.47     0  02:19      3.43    1.40    0.70
  YS02001791YS02001793 CONDUIT   1248.39     0  02:09      6.48    0.54    0.45
  YS02001793JiankangQianchi CONDUIT   1248.76     0  02:10      2.40    0.10    0.65
  YS02001882YS02001884 CONDUIT     42.01     0  02:01      0.14    0.05    1.00
  YS02001884YS02001887 CONDUIT     45.60     0  02:00      0.10    0.06    1.00
  YS02001887YS02001890 CONDUIT   1134.90     0  02:13      1.44    1.94    1.00
  YS02001890YS02001895 CONDUIT    518.43     0  02:19      0.66    0.24    1.00
  YS02001895YS02001898 CONDUIT    518.82     0  02:19      0.66    0.90    1.00
  YS02001898YS02001901 CONDUIT    518.32     0  02:12      0.66    0.33    1.00
  YS02001901YS02001904 CONDUIT    518.41     0  02:19      0.66    0.80    1.00
  YS02001904YS02001907 CONDUIT    518.79     0  02:19      0.66    0.18    1.00
  YS02001907YS02006553 CONDUIT    803.10     0  02:31      0.89    0.94    1.00
  YS02001910YS02001907 CONDUIT   1974.26     0  02:14      2.51    1.11    1.00
  YS02001915YS02001910 CONDUIT   1974.17     0  02:14      2.51    0.98    1.00
  YS02001918YS02001915 CONDUIT    651.70     0  02:14      0.83    0.36    1.00
  YS02001920YS02001918 CONDUIT    651.74     0  02:14      0.83    0.63    1.00
  YS02001923YS02001920 CONDUIT    648.55     0  02:14      0.83    0.29    1.00
  YS02001926YS02001923 CONDUIT    648.96     0  02:14      0.94    0.93    1.00
  YS02001929YS02001926 CONDUIT    647.92     0  02:14      1.09    0.31    1.00
  YS02006553YS02006556 CONDUIT    801.94     0  02:31      1.02    0.69    1.00
  YS02006556YS02006558 CONDUIT    803.98     0  02:31      1.02    0.63    1.00
  YS02006558YS02006561 CONDUIT   1170.42     0  02:13      4.14    2.59    1.00
  YS02006561YS02001783 CONDUIT   1170.74     0  02:13      2.33    0.61    1.00
  YS02163301YS02001633 CONDUIT    913.26     0  02:02      1.16    0.86    1.00
  YS02163601YS02164001 CONDUIT   1307.45     0  02:02      1.66    1.16    1.00
  YS02164001YS02001641 CONDUIT   1305.89     0  02:02      1.66    1.78    1.00
  CC-R1                PUMP       683.00     0  00:00              1.00
  CC-R2                PUMP       683.00     0  00:00              1.00
  CC-S1                PUMP       200.00     0  00:00              1.00
  CC-S2                PUMP       200.00     0  00:00              1.00
  JK-R1                PUMP      1000.00     0  00:00              1.00
  JK-R2                PUMP      1000.00     0  00:00              1.00
  JK-S                 PUMP       300.00     0  00:00              1.00
  
  
  ***************************
  Flow Classification Summary
  ***************************
  
  -------------------------------------------------------------------------------------
                      Adjusted    ---------- Fraction of Time in Flow Class ---------- 
                       /Actual         Up    Down  Sub   Sup   Up    Down  Norm  Inlet 
  Conduit               Length    Dry  Dry   Dry   Crit  Crit  Crit  Crit  Ltd   Ctrl  
  -------------------------------------------------------------------------------------
  1                       1.00   0.00  0.00  0.00  0.00  1.00  0.00  0.00  0.41  0.00
  WS02003060WS02003069    1.00   0.00  0.00  0.00  0.98  0.02  0.00  0.00  0.68  0.00
  WS02003066WSF200        1.00   0.07  0.00  0.00  0.00  0.93  0.00  0.00  0.81  0.00
  WS02003067WS02003066    1.00   0.06  0.01  0.00  0.93  0.00  0.00  0.00  0.00  0.00
  WS02003069WS02003072    1.00   0.00  0.00  0.00  0.99  0.01  0.00  0.00  0.70  0.00
  WS02003072WS02003073    1.00   0.00  0.00  0.00  0.00  0.00  0.00  1.00  0.00  0.00
  WS02004401WS02004402    1.00   0.02  0.00  0.00  0.98  0.00  0.00  0.00  0.00  0.00
  WS02004402WS02004403    1.00   0.02  0.00  0.00  0.97  0.00  0.00  0.00  0.00  0.00
  WS02004403WS02004404    1.00   0.00  0.03  0.00  0.97  0.00  0.00  0.00  0.00  0.00
  WS02004404WS02004405    1.00   0.00  0.00  0.00  1.00  0.00  0.00  0.00  0.00  0.00
  WS02004405WS02004406    1.00   0.00  0.00  0.00  1.00  0.00  0.00  0.00  0.00  0.00
  WS02004406WS02004407    1.00   0.00  0.04  0.00  0.96  0.00  0.00  0.00  0.00  0.00
  WS02004407WS02004409    1.00   0.04  0.00  0.00  0.95  0.01  0.00  0.00  0.96  0.00
  WS02004409WS02004410    1.00   0.04  0.00  0.00  0.96  0.00  0.00  0.00  0.00  0.00
  WS02004410WS02004411    1.00   0.04  0.00  0.00  0.96  0.00  0.00  0.00  0.00  0.00
  WS02004411WS02004412    1.00   0.04  0.00  0.00  0.96  0.00  0.00  0.00  0.00  0.00
  WS02004412WS02004413    1.00   0.04  0.00  0.00  0.95  0.00  0.00  0.00  0.00  0.00
  WS02004413WS02003067    1.00   0.04  0.01  0.00  0.00  0.00  0.94  0.00  0.00  0.00
  WS02006109WS02006110    1.00   0.00  0.01  0.00  0.98  0.00  0.01  0.00  0.00  0.00
  WS02006110WS02006113    1.00   0.01  0.01  0.00  0.98  0.00  0.00  0.00  0.00  0.00
  WS02006111WS02006112    1.00   0.02  0.00  0.00  0.98  0.00  0.00  0.00  0.98  0.00
  WS02006112WS02006115    1.00   0.02  0.00  0.00  0.97  0.00  0.00  0.00  0.00  0.00
  WS02006113WS02006111    1.00   0.02  0.00  0.00  0.00  0.98  0.00  0.00  0.14  0.00
  WS02006115WS02006116    1.00   0.02  0.00  0.00  0.97  0.00  0.00  0.01  0.00  0.00
  WS02006116WS02004401    1.00   0.02  0.00  0.00  0.98  0.00  0.00  0.00  0.00  0.00
  WS02006228WS02006109    1.00   0.00  0.00  0.00  1.00  0.00  0.00  0.00  0.00  0.00
  WS02006229WS02006228    1.00   0.00  0.00  0.00  0.99  0.00  0.00  0.01  0.00  0.00
  WS02006230WS02006229    1.00   0.00  0.00  0.00  0.99  0.00  0.00  0.01  0.00  0.00
  WS02006231WS02006230    1.00   0.00  0.00  0.00  0.29  0.00  0.71  0.00  0.00  0.00
  WS02006232WS02006231    1.00   0.00  0.00  0.00  0.99  0.00  0.01  0.00  0.00  0.00
  WS02006234WS02006232    1.00   0.00  0.00  0.00  1.00  0.00  0.00  0.00  0.16  0.00
  WS02006235WS02006234    1.00   0.00  0.00  0.00  0.80  0.00  0.20  0.00  0.00  0.00
  WS02006238WS02006235    1.00   0.00  0.00  0.00  1.00  0.00  0.00  0.00  0.00  0.00
  WS02006239WS02006238    1.00   0.00  0.00  0.00  1.00  0.00  0.00  0.00  0.31  0.00
  WS02006240WS02006239    1.00   0.00  0.00  0.00  0.62  0.00  0.00  0.38  0.03  0.00
  WS02006242WS02006240    1.00   0.00  0.00  0.00  0.99  0.00  0.01  0.00  0.00  0.00
  WS02006243WS02006242    1.00   0.00  0.00  0.00  0.99  0.00  0.00  0.01  0.51  0.00
  WS02006245WS02006243    1.00   0.00  0.00  0.00  0.68  0.00  0.00  0.32  0.01  0.00
  WS02006247WS02006245    1.00   0.00  0.00  0.00  0.99  0.00  0.00  0.01  0.00  0.00
  WS02006248WS02006247    1.00   0.00  0.00  0.00  0.99  0.00  0.00  0.01  0.22  0.00
  WS02006249WS02006248    1.00   0.00  0.00  0.00  0.47  0.00  0.53  0.00  0.00  0.00
  WS02006251WS02006249    1.00   0.00  0.00  0.00  1.00  0.00  0.00  0.00  0.54  0.00
  WS02006252WS02006251    1.00   0.00  0.55  0.00  0.13  0.00  0.31  0.00  0.00  0.00
  WS02006256WS02006235    1.00   0.00  0.00  0.00  0.99  0.01  0.00  0.00  0.00  0.00
  WSF200WS02003060        1.00   0.00  0.07  0.00  0.32  0.61  0.00  0.00  0.53  0.00
  YS02001580YS02001583    1.00   0.24  0.54  0.00  0.21  0.00  0.00  0.00  0.64  0.00
  YS02001583YS02001586    1.00   0.41  0.32  0.00  0.27  0.00  0.00  0.00  0.64  0.00
  YS02001586YS02001590    1.00   0.13  0.00  0.00  0.45  0.04  0.00  0.38  0.36  0.00
  YS02001590YS02001593    1.00   0.13  0.01  0.00  0.14  0.00  0.73  0.00  0.00  0.00
  YS02001593YS02001596    1.00   0.13  0.00  0.00  0.16  0.01  0.00  0.70  0.02  0.00
  YS02001596YS02001600    1.00   0.13  0.00  0.00  0.21  0.01  0.00  0.64  0.04  0.00
  YS02001600YS02001601    1.00   0.13  0.01  0.00  0.86  0.00  0.00  0.00  0.59  0.00
  YS02001601YS02001602    1.00   0.13  0.01  0.00  0.87  0.00  0.00  0.00  0.00  0.00
  YS02001602YS02001605    1.00   0.13  0.00  0.00  0.87  0.00  0.00  0.00  0.00  0.00
  YS02001605YS02001607    1.00   0.14  0.00  0.00  0.86  0.00  0.00  0.00  0.00  0.00
  YS02001607YS02001610    1.00   0.13  0.01  0.00  0.86  0.00  0.00  0.00  0.01  0.00
  YS02001610YS02001613    1.00   0.13  0.00  0.00  0.87  0.00  0.00  0.00  0.00  0.00
  YS02001613YS02001616    1.00   0.13  0.00  0.00  0.87  0.00  0.00  0.00  0.00  0.00
  YS02001616YS02001619    1.00   0.13  0.00  0.00  0.87  0.00  0.00  0.00  0.00  0.00
  YS02001619YS02001622    1.00   0.13  0.00  0.00  0.87  0.00  0.00  0.00  0.28  0.00
  YS02001622YS02001625    1.00   0.13  0.00  0.00  0.87  0.00  0.00  0.00  0.04  0.00
  YS02001625YS02001629    1.00   0.13  0.04  0.00  0.19  0.00  0.64  0.00  0.00  0.00
  YS02001629YS02163301    1.00   0.15  0.01  0.00  0.84  0.00  0.00  0.00  0.00  0.00
  YS02001633YS02163601    1.00   0.00  0.01  0.00  0.99  0.00  0.00  0.00  0.15  0.00
  YS02001641YS02001644    1.00   0.00  0.01  0.00  0.99  0.00  0.00  0.00  0.00  0.00
  YS02001644YS02001647    1.00   0.00  0.17  0.00  0.83  0.00  0.00  0.00  0.00  0.00
  YS02001647YS02001649    1.00   0.00  0.17  0.00  0.61  0.22  0.00  0.00  0.58  0.00
  YS02001649YS02001757    1.00   0.00  0.00  0.00  0.87  0.13  0.00  0.00  0.40  0.00
  YS02001652YS02001649    1.00   0.00  0.00  0.00  0.97  0.03  0.00  0.00  0.70  0.00
  YS02001655YS02001652    1.00   0.00  0.00  0.00  0.22  0.01  0.00  0.77  0.05  0.00
  YS02001658YS02001655    1.00   0.00  0.14  0.00  0.69  0.17  0.00  0.00  0.66  0.00
  YS02001661YS02001658    1.00   0.14  0.00  0.00  0.53  0.33  0.00  0.00  0.67  0.00
  YS02001664YS02001661    1.00   0.13  0.00  0.00  0.79  0.09  0.00  0.00  0.84  0.00
  YS02001745YS02001748    1.00   0.00  0.00  0.00  0.13  0.00  0.00  0.86  0.04  0.00
  YS02001748YS02001751    1.00   0.00  0.00  0.00  0.85  0.15  0.00  0.00  0.73  0.00
  YS02001751YS02001754    1.00   0.00  0.00  0.00  0.20  0.00  0.00  0.80  0.04  0.00
  YS02001754YS02001757    1.00   0.00  0.00  0.00  1.00  0.00  0.00  0.00  0.76  0.00
  YS02001757CaochengTiaoxuchi    1.00   0.00  0.00  0.00  1.00  0.00  0.00  0.00  0.57  0.00
  YS02001759YS02001757    1.00   0.00  0.00  0.00  0.99  0.01  0.00  0.00  0.49  0.00
  YS02001762YS02001759    1.00   0.00  0.00  0.00  1.00  0.00  0.00  0.00  0.05  0.00
  YS02001765YS02001762    1.00   0.00  0.00  0.00  1.00  0.00  0.00  0.00  0.63  0.00
  YS02001767YS02001765    1.00   0.00  0.00  0.00  1.00  0.00  0.00  0.00  0.01  0.00
  YS02001770YS02001767    1.00   0.00  0.00  0.00  1.00  0.00  0.00  0.00  0.00  0.00
  YS02001774YS02001770    1.00   0.00  0.13  0.00  0.70  0.00  0.16  0.00  0.03  0.00
  YS02001779YS02001774    1.00   0.00  0.00  0.00  1.00  0.00  0.00  0.00  0.73  0.00
  YS02001783YS02001784    1.00   0.00  0.18  0.00  0.82  0.00  0.00  0.00  0.55  0.00
  YS02001784YS02001785    1.00   0.00  0.00  0.00  1.00  0.00  0.00  0.00  0.16  0.00
  YS02001786YS02001788    1.00   0.00  0.00  0.00  0.80  0.20  0.00  0.00  0.00  0.00
  YS02001788YS02001790    1.00   0.00  0.00  0.00  0.21  0.79  0.00  0.00  0.79  0.00
  YS02001790YS02001791    1.00   0.00  0.00  0.00  0.01  0.99  0.00  0.00  0.16  0.00
  YS02001791YS02001793    1.00   0.00  0.00  0.00  0.00  1.00  0.00  0.00  0.01  0.00
  YS02001793JiankangQianchi    1.00   0.00  0.00  0.00  0.99  0.01  0.00  0.00  0.93  0.00
  YS02001882YS02001884    1.00   0.15  0.01  0.00  0.84  0.00  0.00  0.00  0.00  0.00
  YS02001884YS02001887    1.00   0.06  0.05  0.00  0.89  0.00  0.00  0.00  0.00  0.00
  YS02001887YS02001890    1.00   0.00  0.00  0.00  0.97  0.00  0.03  0.00  0.00  0.00
  YS02001890YS02001895    1.00   0.00  0.16  0.00  0.84  0.00  0.00  0.00  0.00  0.00
  YS02001895YS02001898    1.00   0.16  0.00  0.00  0.82  0.00  0.02  0.00  0.00  0.00
  YS02001898YS02001901    1.00   0.16  0.00  0.00  0.84  0.00  0.00  0.00  0.01  0.00
  YS02001901YS02001904    1.00   0.16  0.00  0.00  0.84  0.00  0.00  0.00  0.00  0.00
  YS02001904YS02001907    1.00   0.00  0.16  0.00  0.84  0.00  0.00  0.00  0.00  0.00
  YS02001907YS02006553    1.00   0.00  0.02  0.00  0.98  0.00  0.00  0.00  0.00  0.00
  YS02001910YS02001907    1.00   0.00  0.00  0.00  0.97  0.00  0.00  0.03  0.12  0.00
  YS02001915YS02001910    1.00   0.00  0.00  0.00  0.97  0.03  0.00  0.00  0.15  0.00
  YS02001918YS02001915    1.00   0.00  0.01  0.00  0.98  0.02  0.00  0.00  0.73  0.00
  YS02001920YS02001918    1.00   0.00  0.01  0.00  0.99  0.00  0.00  0.00  0.00  0.00
  YS02001923YS02001920    1.00   0.00  0.00  0.00  1.00  0.00  0.00  0.00  0.91  0.00
  YS02001926YS02001923    1.00   0.00  0.07  0.00  0.07  0.00  0.85  0.00  0.00  0.00
  YS02001929YS02001926    1.00   0.00  0.13  0.00  0.87  0.00  0.00  0.00  0.81  0.00
  YS02006553YS02006556    1.00   0.01  0.00  0.00  0.99  0.00  0.00  0.00  0.03  0.00
  YS02006556YS02006558    1.00   0.00  0.00  0.00  1.00  0.00  0.00  0.00  0.00  0.00
  YS02006558YS02006561    1.00   0.17  0.00  0.00  0.07  0.76  0.00  0.00  0.18  0.00
  YS02006561YS02001783    1.00   0.17  0.00  0.00  0.11  0.72  0.00  0.00  0.67  0.00
  YS02163301YS02001633    1.00   0.00  0.15  0.00  0.85  0.00  0.00  0.00  0.00  0.00
  YS02163601YS02164001    1.00   0.00  0.08  0.00  0.92  0.00  0.00  0.00  0.00  0.00
  YS02164001YS02001641    1.00   0.01  0.07  0.00  0.92  0.00  0.00  0.00  0.05  0.00
  
  
  *************************
  Conduit Surcharge Summary
  *************************
  
  ----------------------------------------------------------------------------
                                                           Hours        Hours 
                         --------- Hours Full --------   Above Full   Capacity
  Conduit                Both Ends  Upstream  Dnstream   Normal Flow   Limited
  ----------------------------------------------------------------------------
  WS02003072WS02003073        0.01      0.01      0.01      1.41         0.01
  WS02004404WS02004405        0.01      0.01      0.01      3.49         0.01
  WS02004405WS02004406        0.01      0.01      0.01      0.79         0.01
  WS02006109WS02006110        0.71      0.71      2.25      0.91         0.01
  WS02006110WS02006113        0.01      0.01      2.24      0.01         0.01
  WS02006111WS02006112        0.01      0.01      2.37      0.01         0.01
  WS02006112WS02006115        0.01      0.01      0.89      0.01         0.01
  WS02006228WS02006109        2.23      2.25      2.23      2.51         2.23
  WS02006229WS02006228        2.23      2.23      2.23      2.37         2.21
  WS02006230WS02006229        2.31      2.36      2.31      4.27         2.31
  WS02006231WS02006230        0.72      0.72      1.04      3.93         0.01
  WS02006232WS02006231        0.95      0.95      2.24      1.04         0.01
  WS02006234WS02006232        2.14      2.14      2.24      1.02         0.99
  WS02006235WS02006234        1.41      1.42      2.15      3.76         0.03
  WS02006238WS02006235        2.18      2.18      2.24      0.01         0.02
  WS02006239WS02006238        2.22      2.24      2.22      2.21         1.93
  WS02006240WS02006239        2.19      2.23      2.19      2.21         1.79
  WS02006242WS02006240        2.22      2.22      2.27      2.32         0.01
  WS02006243WS02006242        2.17      2.17      2.26      0.01         0.08
  WS02006245WS02006243        2.16      2.17      2.16      1.43         1.42
  WS02006247WS02006245        2.16      2.17      2.16      3.51         2.13
  WS02006248WS02006247        2.16      2.16      2.17      0.01         0.08
  WS02006249WS02006248        2.16      2.16      2.16      3.47         0.01
  WS02006251WS02006249        2.16      2.16      2.16      2.25         2.06
  WS02006252WS02006251        2.29      2.29      2.29      2.29         0.01
  WS02006256WS02006235        3.74      3.81      5.49      1.41         0.01
  YS02001580YS02001583        0.76      0.76      0.82      0.01         0.01
  YS02001583YS02001586        0.77      0.77      0.90      0.01         0.01
  YS02001586YS02001590        0.91      0.91      0.98      0.01         0.01
  YS02001590YS02001593        0.99      0.99      1.01      1.02         0.01
  YS02001593YS02001596        1.00      1.00      1.11      0.01         0.01
  YS02001596YS02001600        1.17      1.17      1.26      0.01         0.01
  YS02001600YS02001601        1.31      1.31      1.56      0.01         0.01
  YS02001601YS02001602        1.47      1.47      1.60      1.25         0.01
  YS02001602YS02001605        1.42      1.42      1.47      2.40         0.01
  YS02001605YS02001607        1.39      1.42      1.39      1.50         1.37
  YS02001607YS02001610        0.99      0.99      1.02      0.01         0.01
  YS02001610YS02001613        0.98      0.98      1.02      0.01         0.01
  YS02001613YS02001616        0.94      0.94      0.98      0.01         0.01
  YS02001616YS02001619        0.92      0.92      0.94      0.09         0.10
  YS02001619YS02001622        0.92      0.92      0.93      0.94         0.86
  YS02001622YS02001625        0.93      0.93      1.12      0.01         0.01
  YS02001625YS02001629        0.88      0.88      1.12      0.01         0.01
  YS02001629YS02163301        1.12      1.12      1.13      0.07         0.13
  YS02001633YS02163601        1.15      1.15      1.19      0.24         0.24
  YS02001641YS02001644        1.08      1.10      1.08      1.64         1.06
  YS02001644YS02001647        0.86      0.86      1.08      0.01         0.01
  YS02001647YS02001649        0.86      0.86      1.00      0.01         0.01
  YS02001649YS02001757        1.00      1.00      1.07      0.08         0.04
  YS02001652YS02001649        0.83      0.83      1.00      0.01         0.01
  YS02001655YS02001652        0.63      0.63      0.81      0.01         0.01
  YS02001658YS02001655        0.37      0.37      0.63      0.01         0.01
  YS02001661YS02001658        0.13      0.13      0.37      0.01         0.01
  YS02001664YS02001661        0.01      0.01      0.18      0.01         0.01
  YS02001745YS02001748        0.01      0.01      0.30      0.01         0.01
  YS02001748YS02001751        0.34      0.34      0.50      0.01         0.01
  YS02001751YS02001754        0.50      0.50      0.73      0.01         0.01
  YS02001754YS02001757        0.78      0.78      1.07      0.01         0.01
  YS02001757CaochengTiaoxuchi        1.07      1.07      2.17      0.40         0.39
  YS02001759YS02001757        0.99      0.99      1.07      0.01         0.01
  YS02001762YS02001759        0.96      0.96      0.99      0.01         0.02
  YS02001765YS02001762        0.91      0.91      0.96      0.01         0.01
  YS02001767YS02001765        0.88      0.88      0.91      0.01         0.01
  YS02001770YS02001767        0.88      0.88      0.88      0.63         0.53
  YS02001774YS02001770        0.85      0.85      0.94      0.01         0.01
  YS02001779YS02001774        0.71      0.71      0.94      0.01         0.01
  YS02001783YS02001784        0.62      0.65      0.62      0.82         0.62
  YS02001784YS02001785        0.51      0.62      0.51      1.07         0.51
  YS02001786YS02001788        0.01      0.51      0.01      0.94         0.01
  YS02001790YS02001791        0.01      0.01      0.01      0.61         0.01
  YS02001793JiankangQianchi        0.01      0.01      7.70      0.01         0.01
  YS02001882YS02001884        0.59      0.59      0.60      0.01         0.01
  YS02001884YS02001887        0.63      0.63      0.64      0.01         0.01
  YS02001887YS02001890        0.65      0.65      0.67      0.19         0.01
  YS02001890YS02001895        0.58      0.58      0.69      0.01         0.01
  YS02001895YS02001898        0.57      0.57      0.58      0.01         0.01
  YS02001898YS02001901        0.58      0.58      0.62      0.01         0.01
  YS02001901YS02001904        0.61      0.61      0.62      0.01         0.01
  YS02001904YS02001907        0.61      0.61      0.92      0.01         0.01
  YS02001907YS02006553        1.09      1.09      1.16      0.01         0.01
  YS02001910YS02001907        0.68      0.68      0.90      0.07         0.07
  YS02001915YS02001910        0.59      0.59      0.68      0.01         0.01
  YS02001918YS02001915        0.49      0.49      0.59      0.01         0.01
  YS02001920YS02001918        0.49      0.49      0.51      0.01         0.01
  YS02001923YS02001920        0.45      0.45      0.51      0.01         0.01
  YS02001926YS02001923        0.20      0.20      0.24      0.01         0.01
  YS02001929YS02001926        0.09      0.09      0.24      0.01         0.01
  YS02006553YS02006556        0.79      0.79      0.91      0.01         0.01
  YS02006556YS02006558        0.85      0.85      0.93      0.01         0.01
  YS02006558YS02006561        0.53      0.77      0.53      1.03         0.53
  YS02006561YS02001783        0.46      0.46      0.65      0.01         0.01
  YS02163301YS02001633        1.13      1.13      1.17      0.01         0.01
  YS02163601YS02164001        1.10      1.10      1.19      0.08         0.01
  YS02164001YS02001641        1.10      1.10      1.10      0.68         0.61
  
  
  ***************
  Pumping Summary
  ***************
  
  ---------------------------------------------------------------------------------------------------------
                                                  Min       Avg       Max     Total     Power    % Time Off
                        Percent   Number of      Flow      Flow      Flow    Volume     Usage    Pump Curve
  Pump                 Utilized   Start-Ups       LPS       LPS       LPS  10^6 ltr     Kw-hr    Low   High
  ---------------------------------------------------------------------------------------------------------
  CC-R1                   19.82           3      0.00    683.00    683.00     3.899     74.77    0.0    8.7
  CC-R2                   16.63           3      0.00    683.00    683.00     3.272     63.18    0.0   10.3
  CC-S1                   44.51           4      0.00    200.00    200.00     2.564     14.28    0.0    0.0
  CC-S2                   28.66           2      0.00    200.00    200.00     1.651      8.75    0.0    0.0
  JK-R1                   10.20          16      0.00   1000.00   1000.00     2.938     35.61    0.0    0.0
  JK-R2                    0.16           1      0.00   1000.00   1000.00     0.047      0.36    0.0    0.0
  JK-S                    17.57          26      0.00    300.00    300.00     1.518     19.82    0.0    0.0
  

  Analysis begun on:  Thu Apr 24 00:07:27 2025
  Analysis ended on:  Thu Apr 24 00:07:29 2025
  Total elapsed time: 00:00:02