
  EPA STORM WATER MANAGEMENT MODEL - VERSION 5.2 (Build 5.2.4)
  PYSWMM TOOLKIT API - VERSION v1.0 (2023-11-27)
  ------------------------------------------------------------

  WARNING 04: minimum elevation drop used for Conduit WS02004404WS02004405
  WARNING 03: negative offset ignored for Link YS02001904YS02001907
  
  ****************
  Analysis Options
  ****************
  Flow Units ............... LPS
  Process Models:
    Rainfall/Runoff ........ YES
    RDII ................... NO
    Snowmelt ............... NO
    Groundwater ............ NO
    Flow Routing ........... YES
    Ponding Allowed ........ NO
    Water Quality .......... NO
  Infiltration Method ...... HORTON
  Flow Routing Method ...... DYNWAVE
  Surcharge Method ......... EXTRAN
  Starting Date ............ 08/28/2015 08:00:00
  Ending Date .............. 08/28/2015 16:00:00
  Antecedent Dry Days ...... 8.0
  Report Time Step ......... 00:01:00
  Wet Time Step ............ 00:01:00
  Dry Time Step ............ 00:01:00
  Routing Time Step ........ 30.00 sec
  Variable Time Step ....... YES
  Maximum Trials ........... 8
  Number of Threads ........ 4
  Head Tolerance ........... 0.001500 m
  
  
  **************************        Volume         Depth
  Runoff Quantity Continuity     hectare-m            mm
  **************************     ---------       -------
  Total Precipitation ......         1.492        44.966
  Evaporation Loss .........         0.000         0.000
  Infiltration Loss ........         0.095         2.867
  Surface Runoff ...........         1.364        41.114
  Final Storage ............         0.033         0.994
  Continuity Error (%) .....        -0.019
  
  
  **************************        Volume        Volume
  Flow Routing Continuity        hectare-m      10^6 ltr
  **************************     ---------     ---------
  Dry Weather Inflow .......         0.025         0.251
  Wet Weather Inflow .......         1.364        13.638
  Groundwater Inflow .......         0.000         0.000
  RDII Inflow ..............         0.000         0.000
  External Inflow ..........         0.083         0.834
  External Outflow .........         1.183        11.827
  Flooding Loss ............         0.256         2.565
  Evaporation Loss .........         0.000         0.000
  Exfiltration Loss ........         0.000         0.000
  Initial Stored Volume ....         0.243         2.431
  Final Stored Volume ......         0.278         2.782
  Continuity Error (%) .....        -0.116
  
  
  *************************
  Highest Continuity Errors
  *************************
  Node YS02001583 (-5.50%)
  Node YS02001884 (4.93%)
  Node YS02001774 (1.65%)
  
  
  ***************************
  Time-Step Critical Elements
  ***************************
  Link WS02006252WS02006251 (48.54%)
  Link WS02004404WS02004405 (14.52%)
  Link WS02006238WS02006235 (10.40%)
  Link WS02006235WS02006234 (7.17%)
  Link YS02001791YS02001793 (6.12%)
  
  
  ********************************
  Highest Flow Instability Indexes
  ********************************
  Link WS02006113WS02006111 (42)
  Link WS02006111WS02006112 (24)
  Link WS02006256WS02006235 (11)
  Link WS02006252WS02006251 (10)
  Link WS02006238WS02006235 (10)
  
  
  *********************************
  Most Frequent Nonconverging Nodes
  *********************************
  Node CC-1 (10.28%)
  Node CC-2 (10.28%)
  Node JK-1 (10.28%)
  Node JK-2 (10.28%)
  Node WSC (10.28%)
  
  
  *************************
  Routing Time Step Summary
  *************************
  Minimum Time Step           :     0.01 sec
  Average Time Step           :     2.11 sec
  Maximum Time Step           :     7.04 sec
  % of Time in Steady State   :     0.00
  Average Iterations per Step :     2.88
  % of Steps Not Converging   :    10.28
  Time Step Frequencies       :
     30.000 - 13.228 sec      :     0.00 %
     13.228 -  5.833 sec      :    10.89 %
      5.833 -  2.572 sec      :    21.05 %
      2.572 -  1.134 sec      :    14.74 %
      1.134 -  0.500 sec      :    53.31 %
  
  
  ***************************
  Subcatchment Runoff Summary
  ***************************
  
  ------------------------------------------------------------------------------------------------------------------------------
                            Total      Total      Total      Total     Imperv       Perv      Total       Total     Peak  Runoff
                           Precip      Runon       Evap      Infil     Runoff     Runoff     Runoff      Runoff   Runoff   Coeff
  Subcatchment                 mm         mm         mm         mm         mm         mm         mm    10^6 ltr      LPS
  ------------------------------------------------------------------------------------------------------------------------------
  sub60                     44.97       0.00       0.00       1.73      38.36       3.67      42.04        0.55   369.69   0.935
  sub61                     44.97       0.00       0.00       2.50      36.19       5.14      41.33        0.76   511.96   0.919
  sub62                     44.97       0.00       0.00       1.15      40.08       2.45      42.53        1.17   724.06   0.946
  sub63                     44.97       0.00       0.00       4.64      30.95       8.40      39.36        0.89   570.23   0.875
  sub64                     44.97       0.00       0.00       2.34      37.01       4.40      41.42        0.99   585.22   0.921
  sub65                     44.97       0.00       0.00       2.03      37.86       3.82      41.68        1.15   652.47   0.927
  sub66                     44.97       0.00       0.00       5.72      30.85       7.32      38.17        1.78   838.91   0.849
  sub67                     44.97       0.00       0.00       1.11      40.12       2.49      42.61        0.79   562.07   0.948
  sub68                     44.97       0.00       0.00       2.07      37.48       4.22      41.70        1.15   740.42   0.927
  sub69                     44.97       0.00       0.00       1.83      38.11       4.91      43.02        1.59   870.14   0.957
  sub70                     44.97       0.00       0.00       6.09      29.51       9.20      38.71        1.12   472.17   0.861
  sub71                     44.97       0.00       0.00       1.18      40.04       2.42      42.46        1.11   634.90   0.944
  sub72                     44.97       0.00       0.00       1.05      40.41       2.10      42.51        0.58   305.93   0.945
  
  
  ******************
  Node Depth Summary
  ******************
  
  ---------------------------------------------------------------------------------
                                 Average  Maximum  Maximum  Time of Max    Reported
                                   Depth    Depth      HGL   Occurrence   Max Depth
  Node                 Type       Meters   Meters   Meters  days hr:min      Meters
  ---------------------------------------------------------------------------------
  WS02003060           JUNCTION     0.22     0.38     5.31     0  02:43        0.38
  WS02003066           JUNCTION     0.18     0.30     5.85     0  02:42        0.30
  WS02003067           JUNCTION     0.48     0.70     6.02     0  02:42        0.70
  WS02003069           JUNCTION     0.25     0.43     5.01     0  02:43        0.43
  WS02003072           JUNCTION     0.31     0.50     4.87     0  02:44        0.50
  WS02003073           JUNCTION     0.17     0.30     4.36     0  02:44        0.30
  WS02004401           JUNCTION     0.56     0.85     6.85     0  02:38        0.85
  WS02004402           JUNCTION     0.59     0.88     6.84     0  02:38        0.88
  WS02004403           JUNCTION     0.62     0.89     6.82     0  02:38        0.89
  WS02004404           JUNCTION     0.69     0.96     6.81     0  02:38        0.96
  WS02004405           JUNCTION     0.69     0.96     6.81     0  02:38        0.95
  WS02004406           JUNCTION     0.70     0.96     6.79     0  02:38        0.96
  WS02004407           JUNCTION     0.16     0.30     6.61     0  02:39        0.30
  WS02004409           JUNCTION     0.36     0.67     6.44     0  02:41        0.67
  WS02004410           JUNCTION     0.39     0.68     6.40     0  02:41        0.68
  WS02004411           JUNCTION     0.41     0.69     6.37     0  02:42        0.69
  WS02004412           JUNCTION     0.44     0.70     6.34     0  02:42        0.70
  WS02004413           JUNCTION     0.60     0.86     6.33     0  02:42        0.86
  WS02006109           JUNCTION     0.61     1.43     8.05     0  02:43        0.99
  WS02006110           JUNCTION     0.62     1.54     8.12     0  02:43        0.94
  WS02006111           JUNCTION     0.16     0.29     6.99     0  03:29        0.29
  WS02006112           JUNCTION     0.71     1.07     6.95     0  02:32        1.06
  WS02006113           JUNCTION     0.25     0.46     7.35     0  03:29        0.46
  WS02006115           JUNCTION     0.44     0.75     6.89     0  02:37        0.75
  WS02006116           JUNCTION     0.53     0.83     6.87     0  02:37        0.83
  WS02006228           JUNCTION     0.60     1.72     8.37     0  02:43        1.07
  WS02006229           JUNCTION     0.57     1.81     8.50     0  02:43        1.09
  WS02006230           JUNCTION     0.56     2.24     8.98     0  02:43        1.19
  WS02006231           JUNCTION     0.38     1.61     8.73     0  02:43        1.07
  WS02006232           JUNCTION     0.50     1.68     8.72     0  02:43        1.30
  WS02006234           JUNCTION     0.42     1.53     8.69     0  02:43        1.28
  WS02006235           JUNCTION     0.46     1.58     8.75     0  02:43        1.32
  WS02006238           JUNCTION     0.48     1.62     8.76     0  02:25        1.37
  WS02006239           JUNCTION     0.45     1.59     8.80     0  02:43        1.40
  WS02006240           JUNCTION     0.42     1.53     8.82     0  02:43        1.40
  WS02006242           JUNCTION     0.48     1.55     8.82     0  02:43        1.49
  WS02006243           JUNCTION     0.39     1.38     8.80     0  02:31        1.38
  WS02006245           JUNCTION     0.40     1.31     8.80     0  02:31        1.31
  WS02006247           JUNCTION     0.42     1.26     8.76     0  02:31        1.26
  WS02006248           JUNCTION     0.39     1.10     8.69     0  02:20        1.10
  WS02006249           JUNCTION     0.42     1.09     8.69     0  02:16        1.09
  WS02006251           JUNCTION     0.42     1.39     9.06     0  02:42        1.14
  WS02006252           JUNCTION     0.32     1.50     9.74     0  00:00        0.70
  WS02006256           JUNCTION     0.90     2.35     9.28     0  00:00        2.35
  WSF200               JUNCTION     0.16     0.29     5.52     0  02:42        0.29
  YS02001580           JUNCTION     0.07     1.05     9.59     0  02:08        0.77
  YS02001583           JUNCTION     0.10     1.14     9.64     0  02:08        0.82
  YS02001586           JUNCTION     0.16     1.13     9.30     0  02:08        1.13
  YS02001590           JUNCTION     0.25     1.40     9.26     0  02:11        1.40
  YS02001593           JUNCTION     0.19     1.32     9.18     0  02:08        1.29
  YS02001596           JUNCTION     0.25     1.68     9.10     0  02:08        1.68
  YS02001600           JUNCTION     0.31     1.87     9.00     0  02:08        1.86
  YS02001601           JUNCTION     0.49     2.06     8.90     0  02:07        2.06
  YS02001602           JUNCTION     0.41     1.87     8.77     0  02:07        1.87
  YS02001605           JUNCTION     0.38     1.78     8.68     0  02:14        1.78
  YS02001607           JUNCTION     0.39     1.65     8.49     0  02:25        1.64
  YS02001610           JUNCTION     0.43     1.68     8.48     0  02:08        1.68
  YS02001613           JUNCTION     0.39     1.65     8.49     0  02:11        1.65
  YS02001616           JUNCTION     0.32     1.61     8.52     0  02:11        1.61
  YS02001619           JUNCTION     0.30     1.61     8.54     0  02:08        1.61
  YS02001622           JUNCTION     0.28     1.62     8.52     0  02:08        1.62
  YS02001625           JUNCTION     0.55     1.78     8.38     0  02:08        1.78
  YS02001629           JUNCTION     0.40     1.85     8.40     0  02:08        1.85
  YS02001633           JUNCTION     0.48     2.08     8.53     0  02:08        2.08
  YS02001641           JUNCTION     0.46     1.98     8.42     0  02:12        1.94
  YS02001644           JUNCTION     0.46     1.92     8.35     0  02:12        1.92
  YS02001647           JUNCTION     0.24     1.77     8.38     0  02:12        1.71
  YS02001649           JUNCTION     0.28     1.96     8.35     0  02:12        1.90
  YS02001652           JUNCTION     0.17     1.93     8.52     0  02:12        1.74
  YS02001655           JUNCTION     0.13     1.96     8.81     0  02:12        1.52
  YS02001658           JUNCTION     0.09     1.86     9.00     0  02:12        1.26
  YS02001661           JUNCTION     0.13     1.05     8.46     0  02:14        1.01
  YS02001664           JUNCTION     0.04     0.49     8.41     0  02:13        0.38
  YS02001745           JUNCTION     0.05     0.70     8.21     0  02:13        0.65
  YS02001748           JUNCTION     0.08     1.62     8.70     0  02:13        1.08
  YS02001751           JUNCTION     0.10     1.62     8.50     0  02:13        1.27
  YS02001754           JUNCTION     0.15     2.01     8.62     0  02:12        1.54
  YS02001757           JUNCTION     0.30     1.93     8.19     0  02:13        1.89
  YS02001759           JUNCTION     0.24     1.88     8.24     0  02:14        1.86
  YS02001762           JUNCTION     0.23     1.89     8.29     0  02:11        1.86
  YS02001765           JUNCTION     0.21     1.95     8.40     0  02:11        1.83
  YS02001767           JUNCTION     0.21     2.03     8.52     0  02:11        1.84
  YS02001770           JUNCTION     0.22     1.95     8.44     0  02:11        1.89
  YS02001774           JUNCTION     0.28     2.00     8.42     0  02:11        1.96
  YS02001779           JUNCTION     0.13     1.68     8.37     0  02:11        1.68
  YS02001783           JUNCTION     0.21     1.51     7.65     0  02:11        1.30
  YS02001784           JUNCTION     0.23     1.25     7.32     0  02:11        1.25
  YS02001786           JUNCTION     0.19     0.99     7.02     0  02:11        0.87
  YS02001788           JUNCTION     0.14     0.62     6.60     0  02:13        0.62
  YS02001790           JUNCTION     0.16     0.72     6.37     0  02:14        0.71
  YS02001791           JUNCTION     0.10     0.44     5.91     0  02:14        0.43
  YS02001793           JUNCTION     0.06     0.28     5.12     0  02:12        0.27
  YS02001882           JUNCTION     0.27     1.83     8.55     0  02:09        1.75
  YS02001884           JUNCTION     0.36     1.93     8.55     0  02:09        1.84
  YS02001887           JUNCTION     0.44     1.94     8.48     0  02:09        1.90
  YS02001890           JUNCTION     0.47     1.81     8.32     0  02:09        1.81
  YS02001895           JUNCTION     0.24     1.58     8.33     0  02:09        1.56
  YS02001898           JUNCTION     0.25     1.59     8.33     0  02:10        1.55
  YS02001901           JUNCTION     0.36     1.70     8.31     0  02:10        1.67
  YS02001904           JUNCTION     0.34     1.65     8.28     0  02:10        1.63
  YS02001907           JUNCTION     0.67     1.96     8.25     0  02:10        1.96
  YS02001910           JUNCTION     0.46     2.00     8.50     0  02:11        1.95
  YS02001915           JUNCTION     0.27     2.00     8.72     0  02:09        1.89
  YS02001918           JUNCTION     0.14     1.81     8.88     0  02:11        1.81
  YS02001920           JUNCTION     0.21     2.14     9.15     0  02:11        1.85
  YS02001923           JUNCTION     0.10     2.03     9.29     0  02:11        1.58
  YS02001926           JUNCTION     0.14     1.90     9.35     0  02:11        1.37
  YS02001929           JUNCTION     0.07     1.78     9.47     0  02:11        1.09
  YS02006553           JUNCTION     0.67     2.05     8.33     0  02:11        1.96
  YS02006556           JUNCTION     0.64     2.12     8.43     0  02:11        1.94
  YS02006558           JUNCTION     0.68     2.19     8.45     0  02:11        1.98
  YS02006561           JUNCTION     0.13     1.34     8.00     0  02:11        0.88
  YS02163301           JUNCTION     0.42     2.03     8.55     0  02:08        2.03
  YS02163601           JUNCTION     0.52     2.08     8.48     0  02:12        2.03
  YS02164001           JUNCTION     0.45     2.00     8.46     0  02:12        1.94
  CC-1                 OUTFALL      0.00     0.00     0.00     0  00:00        0.00
  CC-2                 OUTFALL      0.00     0.00     0.00     0  00:00        0.00
  JK-1                 OUTFALL      0.00     0.00     0.00     0  00:00        0.00
  JK-2                 OUTFALL      0.00     0.00     0.00     0  00:00        0.00
  WSC                  OUTFALL      0.17     0.30     0.97     0  02:45        0.30
  CC-storage           STORAGE      0.92     1.51     7.01     0  02:34        1.51
  JK-storage           STORAGE      3.23     4.24     5.04     0  02:20        4.19
  
  
  *******************
  Node Inflow Summary
  *******************
  
  -------------------------------------------------------------------------------------------------
                                  Maximum  Maximum                  Lateral       Total        Flow
                                  Lateral    Total  Time of Max      Inflow      Inflow     Balance
                                   Inflow   Inflow   Occurrence      Volume      Volume       Error
  Node                 Type           LPS      LPS  days hr:min    10^6 ltr    10^6 ltr     Percent
  -------------------------------------------------------------------------------------------------
  WS02003060           JUNCTION     16.53   552.48     0  02:42       0.476         4.6       0.048
  WS02003066           JUNCTION      0.00   535.57     0  02:42           0        4.12       0.033
  WS02003067           JUNCTION      0.00   535.49     0  02:42           0        4.13       0.101
  WS02003069           JUNCTION      0.32   552.55     0  02:43     0.00922        4.61       0.083
  WS02003072           JUNCTION      0.00   552.33     0  02:44           0         4.6       0.149
  WS02003073           JUNCTION      1.82   554.01     0  02:44      0.0524        4.65       0.118
  WS02004401           JUNCTION      0.00   539.82     0  02:38           0        4.23       0.239
  WS02004402           JUNCTION      0.00   538.22     0  02:38           0        4.22       0.244
  WS02004403           JUNCTION      0.00   538.14     0  02:38           0        4.21       0.238
  WS02004404           JUNCTION      0.16   537.53     0  02:38     0.00467         4.2       0.200
  WS02004405           JUNCTION      0.04   537.54     0  02:38      0.0011        4.19       0.296
  WS02004406           JUNCTION      0.00   537.72     0  02:38           0        4.18       0.494
  WS02004407           JUNCTION      0.00   537.06     0  02:39           0        4.16       0.026
  WS02004409           JUNCTION      0.00   536.66     0  02:39           0        4.16       0.062
  WS02004410           JUNCTION      0.00   536.16     0  02:41           0        4.16       0.102
  WS02004411           JUNCTION      0.00   535.94     0  02:41           0        4.15       0.132
  WS02004412           JUNCTION      0.00   535.80     0  02:42           0        4.15       0.177
  WS02004413           JUNCTION      0.00   535.78     0  02:41           0        4.14       0.316
  WS02006109           JUNCTION      1.23   563.25     0  02:31      0.0354        4.28       0.223
  WS02006110           JUNCTION      0.00   563.67     0  02:31           0        4.27       0.156
  WS02006111           JUNCTION      0.00   563.33     0  03:29           0        4.26       0.016
  WS02006112           JUNCTION      0.00   544.01     0  03:29           0        4.26       0.415
  WS02006113           JUNCTION      0.00   570.00     0  02:43           0        4.26       0.042
  WS02006115           JUNCTION      0.00   554.34     0  02:37           0        4.24       0.152
  WS02006116           JUNCTION      0.00   542.39     0  02:37           0        4.23       0.128
  WS02006228           JUNCTION      0.00   561.55     0  02:31           0        4.24       0.095
  WS02006229           JUNCTION      0.00   561.52     0  02:31           0        4.25       0.113
  WS02006230           JUNCTION     10.28   591.94     0  03:18       0.296        4.25       0.119
  WS02006231           JUNCTION      0.00   572.67     0  02:42           0        3.96      -0.066
  WS02006232           JUNCTION      0.00   571.83     0  02:42           0        3.96       0.214
  WS02006234           JUNCTION      0.00   567.06     0  03:18           0        3.96      -0.222
  WS02006235           JUNCTION      0.00   563.08     0  02:31           0        4.01       0.218
  WS02006238           JUNCTION      0.00   425.83     0  02:40           0        3.26      -0.220
  WS02006239           JUNCTION      0.00   424.19     0  02:40           0        3.24      -0.140
  WS02006240           JUNCTION      0.00   421.02     0  02:45           0        3.22      -0.074
  WS02006242           JUNCTION      0.00   420.90     0  02:30           0         3.2       0.027
  WS02006243           JUNCTION      0.00   420.85     0  02:45           0        3.19       0.149
  WS02006245           JUNCTION      0.00   420.04     0  02:40           0         3.2       0.396
  WS02006247           JUNCTION      0.00   419.98     0  02:40           0         3.2       0.021
  WS02006248           JUNCTION      0.00   421.22     0  02:40           0         3.2       0.105
  WS02006249           JUNCTION      0.00   459.02     0  00:00           0        3.38       0.443
  WS02006251           JUNCTION      0.08   406.83     0  02:42     0.00222        3.38      -0.060
  WS02006252           JUNCTION      0.00   400.00     0  00:00           0        3.37      -0.037
  WS02006256           JUNCTION      0.00   300.00     0  00:00           0        1.11      -0.802
  WSF200               JUNCTION      0.00   535.62     0  02:42           0        4.12       0.010
  YS02001580           JUNCTION      0.00   131.58     0  02:08           0     0.00424       0.598
  YS02001583           JUNCTION      0.00   164.11     0  02:08           0      0.0152      -5.217
  YS02001586           JUNCTION    472.17   472.36     0  02:16        1.12        1.13       0.105
  YS02001590           JUNCTION      0.00   318.01     0  02:24           0        1.03      -0.037
  YS02001593           JUNCTION      0.00   317.99     0  02:13           0        1.03       0.014
  YS02001596           JUNCTION      0.00   317.94     0  02:22           0        1.03      -0.006
  YS02001600           JUNCTION      0.00   318.01     0  02:14           0        1.03       0.026
  YS02001601           JUNCTION    870.14  1187.82     0  02:14        1.59        2.62       0.022
  YS02001602           JUNCTION      0.00   519.15     0  02:07           0        1.89       0.024
  YS02001605           JUNCTION      0.00   518.73     0  02:07           0        1.82       0.036
  YS02001607           JUNCTION      0.00   518.11     0  02:07           0        1.82       0.105
  YS02001610           JUNCTION      0.00   517.19     0  02:07           0        1.82       0.119
  YS02001613           JUNCTION      0.00   518.96     0  02:07           0         1.6       0.100
  YS02001616           JUNCTION      0.00   521.65     0  02:07           0        1.59       0.022
  YS02001619           JUNCTION    838.91   924.40     0  02:10        1.78        3.37      -0.004
  YS02001622           JUNCTION      0.00   923.66     0  02:10           0        3.37       0.002
  YS02001625           JUNCTION      0.00   945.51     0  02:15           0        3.38       0.264
  YS02001629           JUNCTION      0.00   927.18     0  02:07           0        2.94       0.016
  YS02001633           JUNCTION    652.67  1386.68     0  02:10        1.15        4.07       0.086
  YS02001641           JUNCTION      0.00  1386.35     0  02:10           0        4.06       0.065
  YS02001644           JUNCTION    585.26  1807.61     0  02:10       0.996        5.05       0.065
  YS02001647           JUNCTION      0.00  1808.01     0  02:10           0        5.01       0.009
  YS02001649           JUNCTION      0.00  2033.49     0  02:10           0        5.91       0.002
  YS02001652           JUNCTION      0.00   673.25     0  02:14           0       0.898      -0.124
  YS02001655           JUNCTION      0.15   671.67     0  02:14     0.00443       0.899       0.013
  YS02001658           JUNCTION      0.00   696.87     0  02:12           0       0.893      -0.073
  YS02001661           JUNCTION      0.00   773.47     0  02:14           0       0.894       0.012
  YS02001664           JUNCTION    570.23   570.23     0  02:14       0.893       0.893      -0.012
  YS02001745           JUNCTION    369.69   369.69     0  02:13       0.552       0.552       0.271
  YS02001748           JUNCTION      0.04   576.73     0  02:13      0.0013       0.552      -0.342
  YS02001751           JUNCTION      0.01   422.83     0  02:14    0.000317       0.559       0.150
  YS02001754           JUNCTION      0.26   423.93     0  02:14     0.00749       0.572      -0.204
  YS02001757           JUNCTION      0.00  3283.00     0  02:14           0        8.42       0.052
  YS02001759           JUNCTION    512.00  1247.02     0  02:13        0.76        1.94      -0.010
  YS02001762           JUNCTION      0.00   735.99     0  02:13           0        1.18      -0.003
  YS02001765           JUNCTION      0.00   734.03     0  02:13           0        1.18       0.006
  YS02001767           JUNCTION      0.54   731.94     0  02:13      0.0154        1.18       0.004
  YS02001770           JUNCTION    724.22   724.25     0  02:13        1.17        1.21      -0.023
  YS02001774           JUNCTION      0.00   339.88     0  02:11           0      0.0612       1.677
  YS02001779           JUNCTION      0.01   344.46     0  02:11    0.000144      0.0188      -2.714
  YS02001783           JUNCTION      0.00  1157.04     0  02:13           0        3.23       0.006
  YS02001784           JUNCTION      1.06  1158.07     0  02:13      0.0305        3.26       0.016
  YS02001786           JUNCTION      0.06  1158.06     0  02:12     0.00162        3.26       0.021
  YS02001788           JUNCTION      0.07  1158.01     0  02:12     0.00204        3.26       0.009
  YS02001790           JUNCTION      0.15  1169.85     0  02:11     0.00446        3.26       0.027
  YS02001791           JUNCTION      0.00  1284.44     0  02:14           0        3.26      -0.024
  YS02001793           JUNCTION      0.00  1242.81     0  02:14           0        3.26       0.006
  YS02001882           JUNCTION      0.00    69.58     0  02:09           0      0.0128       4.587
  YS02001884           JUNCTION      0.00    80.48     0  02:09           0      0.0484       5.185
  YS02001887           JUNCTION    562.52   564.14     0  02:13       0.806       0.839       0.517
  YS02001890           JUNCTION      0.00   562.79     0  02:13           0       0.798       0.638
  YS02001895           JUNCTION      0.00   514.52     0  02:14           0       0.785       0.167
  YS02001898           JUNCTION      0.00   514.29     0  02:14           0       0.784       0.049
  YS02001901           JUNCTION      0.00   514.15     0  02:14           0       0.786       0.411
  YS02001904           JUNCTION      0.00   514.02     0  02:14           0        0.79       0.342
  YS02001907           JUNCTION      0.00  1528.68     0  02:12           0        2.56       0.663
  YS02001910           JUNCTION      0.00  1028.73     0  02:12           0        1.77       0.397
  YS02001915           JUNCTION    634.92  1028.40     0  02:12        1.11        1.82       0.080
  YS02001918           JUNCTION      0.00   435.63     0  02:12           0       0.736       0.041
  YS02001920           JUNCTION      2.87   434.64     0  02:12      0.0827       0.719       0.133
  YS02001923           JUNCTION      0.04   423.47     0  02:11     0.00109        0.62      -0.053
  YS02001926           JUNCTION      0.05   600.92     0  02:11      0.0015         0.6       0.022
  YS02001929           JUNCTION    305.93   409.79     0  02:11       0.585       0.587      -0.008
  YS02006553           JUNCTION      0.00   795.65     0  02:25           0         2.1       0.550
  YS02006556           JUNCTION      0.00   795.50     0  02:25           0        2.11       0.369
  YS02006558           JUNCTION    741.30  1174.82     0  02:11        1.17        3.25       0.104
  YS02006561           JUNCTION      0.00  1175.02     0  02:11           0        3.23      -0.000
  YS02163301           JUNCTION      0.00   925.21     0  02:09           0        2.93       0.051
  YS02163601           JUNCTION      0.11  1386.67     0  02:10     0.00317        4.06       0.119
  YS02164001           JUNCTION      0.00  1386.87     0  02:10           0        4.05       0.051
  CC-1                 OUTFALL       0.00   683.00     0  00:00           0        3.04       0.000
  CC-2                 OUTFALL       0.00   683.00     0  00:00           0        2.01       0.000
  JK-1                 OUTFALL       0.00  1000.00     0  00:00           0        1.75       0.000
  JK-2                 OUTFALL       0.00  1000.00     0  00:00           0       0.386       0.000
  WSC                  OUTFALL       0.00   553.87     0  02:45           0        4.64       0.000
  CC-storage           STORAGE       0.00  3283.02     0  02:14           0        10.6      -0.096
  JK-storage           STORAGE       0.00  1210.36     0  02:18           0        3.41       0.120
  
  
  **********************
  Node Surcharge Summary
  **********************
  
  Surcharging occurs when water rises above the top of the highest conduit.
  ---------------------------------------------------------------------
                                               Max. Height   Min. Depth
                                   Hours       Above Crown    Below Rim
  Node                 Type      Surcharged         Meters       Meters
  ---------------------------------------------------------------------
  WS02006109           JUNCTION        1.62          0.613        1.207
  WS02006110           JUNCTION        0.54          0.629        1.221
  WS02006112           JUNCTION        0.56          0.071        1.609
  WS02006228           JUNCTION        1.62          0.893        1.307
  WS02006229           JUNCTION        1.63          1.008        1.442
  WS02006230           JUNCTION        0.55          1.159        0.411
  WS02006231           JUNCTION        0.66          0.902        0.628
  WS02006232           JUNCTION        1.65          0.985        0.495
  WS02006234           JUNCTION        0.91          0.810        0.430
  WS02006235           JUNCTION        1.60          0.872        0.418
  WS02006238           JUNCTION        1.63          0.896        0.534
  WS02006239           JUNCTION        1.59          0.848        0.442
  WS02006240           JUNCTION        1.59          0.821        0.569
  WS02006242           JUNCTION        1.61          0.820        0.000
  WS02006243           JUNCTION        1.58          0.668        0.102
  WS02006245           JUNCTION        1.58          0.603        0.247
  WS02006247           JUNCTION        1.58          0.554        0.206
  WS02006248           JUNCTION        1.57          0.380        0.000
  WS02006249           JUNCTION        1.57          0.390        0.000
  WS02006251           JUNCTION        0.72          0.362        0.818
  WS02006252           JUNCTION        1.72          1.100        0.000
  WS02006256           JUNCTION        4.97          2.050        0.000
  YS02001580           JUNCTION        0.39          0.450        0.000
  YS02001583           JUNCTION        0.40          0.500        0.000
  YS02001586           JUNCTION        0.52          0.510        0.000
  YS02001590           JUNCTION        0.58          0.747        0.003
  YS02001593           JUNCTION        0.59          0.700        0.140
  YS02001596           JUNCTION        0.69          0.951        0.119
  YS02001600           JUNCTION        0.81          1.190        0.000
  YS02001601           JUNCTION        1.16          1.440        0.000
  YS02001602           JUNCTION        1.05          1.270        0.000
  YS02001605           JUNCTION        0.99          1.178        0.002
  YS02001607           JUNCTION        0.56          0.646        0.034
  YS02001610           JUNCTION        0.58          0.680        0.000
  YS02001613           JUNCTION        0.55          0.654        0.046
  YS02001616           JUNCTION        0.51          0.610        0.000
  YS02001619           JUNCTION        0.50          0.610        0.000
  YS02001622           JUNCTION        0.50          0.620        0.000
  YS02001625           JUNCTION        0.66          0.780        0.000
  YS02001629           JUNCTION        0.46          0.470        0.000
  YS02001633           JUNCTION        0.67          1.060        0.000
  YS02001641           JUNCTION        0.61          0.984        0.116
  YS02001644           JUNCTION        0.58          0.920        0.000
  YS02001647           JUNCTION        0.39          0.769        0.131
  YS02001649           JUNCTION        0.48          0.962        0.088
  YS02001652           JUNCTION        0.32          0.896        0.234
  YS02001655           JUNCTION        0.21          0.965        0.235
  YS02001658           JUNCTION        0.08          0.858        0.442
  YS02001748           JUNCTION        0.01          0.544        0.646
  YS02001751           JUNCTION        0.13          0.624        0.576
  YS02001754           JUNCTION        0.24          0.964        0.186
  YS02001757           JUNCTION        0.53          0.933        0.277
  YS02001759           JUNCTION        0.44          0.875        0.335
  YS02001762           JUNCTION        0.42          0.890        0.260
  YS02001765           JUNCTION        0.38          0.949        0.151
  YS02001767           JUNCTION        0.36          1.030        0.000
  YS02001770           JUNCTION        0.33          0.920        0.000
  YS02001774           JUNCTION        0.40          0.999        0.051
  YS02001779           JUNCTION        0.25          0.680        0.000
  YS02001783           JUNCTION        0.39          0.710        0.890
  YS02001784           JUNCTION        0.37          0.454        1.036
  YS02001786           JUNCTION        0.27          0.195        1.235
  YS02001882           JUNCTION        0.34          0.830        0.000
  YS02001884           JUNCTION        0.35          0.870        0.000
  YS02001887           JUNCTION        0.38          0.893        0.057
  YS02001890           JUNCTION        0.39          0.760        0.000
  YS02001895           JUNCTION        0.33          0.584        0.166
  YS02001898           JUNCTION        0.32          0.564        0.176
  YS02001901           JUNCTION        0.37          0.697        0.173
  YS02001904           JUNCTION        0.36          0.648        0.202
  YS02001907           JUNCTION        0.58          0.950        0.000
  YS02001910           JUNCTION        0.41          0.996        0.104
  YS02001915           JUNCTION        0.34          1.000        0.000
  YS02001918           JUNCTION        0.26          0.810        0.000
  YS02001920           JUNCTION        0.27          1.138        0.002
  YS02001923           JUNCTION        0.01          0.820        0.000
  YS02001926           JUNCTION        0.01          0.900        0.000
  YS02001929           JUNCTION        0.01          0.780        0.000
  YS02006553           JUNCTION        0.60          1.051        0.139
  YS02006556           JUNCTION        0.50          1.083        0.267
  YS02006558           JUNCTION        0.49          1.087        0.313
  YS02006561           JUNCTION        0.23          0.536        0.614
  YS02163301           JUNCTION        0.66          1.030        0.000
  YS02163601           JUNCTION        0.70          1.080        0.000
  YS02164001           JUNCTION        0.62          1.004        0.096
  
  
  *********************
  Node Flooding Summary
  *********************
  
  Flooding refers to all water that overflows a node, whether it ponds or not.
  --------------------------------------------------------------------------
                                                             Total   Maximum
                                 Maximum   Time of Max       Flood    Ponded
                        Hours       Rate    Occurrence      Volume     Depth
  Node                 Flooded       LPS   days hr:min    10^6 ltr    Meters
  --------------------------------------------------------------------------
  WS02006242              0.01      0.93      0  02:43       0.000     0.000
  WS02006248              0.01     26.17      0  02:25       0.000     0.000
  WS02006249              0.69     93.65      0  02:16       0.166     0.000
  WS02006252              0.01    245.63      0  00:00       0.000     0.000
  WS02006256              1.02    293.19      0  00:00       0.337     0.000
  YS02001580              0.01    117.51      0  02:08       0.000     0.000
  YS02001583              0.01     90.66      0  02:08       0.000     0.000
  YS02001586              0.28    154.89      0  02:16       0.089     0.000
  YS02001600              0.01      0.75      0  02:08       0.000     0.000
  YS02001601              0.46    790.01      0  02:14       0.726     0.000
  YS02001602              0.36     62.04      0  02:24       0.071     0.000
  YS02001610              0.30    336.62      0  02:16       0.224     0.000
  YS02001616              0.01      0.24      0  02:11       0.000     0.000
  YS02001619              0.01      7.90      0  02:08       0.000     0.000
  YS02001622              0.01      8.89      0  02:08       0.000     0.000
  YS02001625              0.28    945.07      0  02:15       0.450     0.000
  YS02001629              0.05     81.31      0  02:13       0.009     0.000
  YS02001633              0.01     18.73      0  02:08       0.000     0.000
  YS02001644              0.05    273.88      0  02:14       0.025     0.000
  YS02001767              0.01    117.53      0  02:11       0.000     0.000
  YS02001770              0.01     96.50      0  02:11       0.000     0.000
  YS02001779              0.01    311.65      0  02:11       0.002     0.000
  YS02001882              0.01     18.11      0  02:09       0.000     0.000
  YS02001884              0.01     20.84      0  02:09       0.000     0.000
  YS02001890              0.07     59.01      0  02:13       0.008     0.000
  YS02001907              0.21   1089.19      0  02:12       0.451     0.000
  YS02001915              0.01     78.23      0  02:09       0.000     0.000
  YS02001918              0.01    159.90      0  02:11       0.002     0.000
  YS02001923              0.01    287.58      0  02:11       0.001     0.000
  YS02001926              0.01    507.40      0  02:11       0.002     0.000
  YS02001929              0.01    129.45      0  02:11       0.000     0.000
  YS02163301              0.01     25.34      0  02:08       0.000     0.000
  YS02163601              0.01      2.67      0  02:12       0.000     0.000
  
  
  **********************
  Storage Volume Summary
  **********************
  
  ------------------------------------------------------------------------------------------------
                         Average    Avg   Evap  Exfil     Maximum    Max    Time of Max    Maximum
                          Volume   Pcnt   Pcnt   Pcnt      Volume   Pcnt     Occurrence    Outflow
  Storage Unit           1000 m³   Full   Loss   Loss     1000 m³   Full    days hr:min        LPS
  ------------------------------------------------------------------------------------------------
  CC-storage               2.572   40.1    0.0    0.0       4.219   65.8       0  02:34    1783.53
  JK-storage               0.162   55.6    0.0    0.0       0.213   73.1       0  02:20    2300.00
  
  
  ***********************
  Outfall Loading Summary
  ***********************
  
  -----------------------------------------------------------
                         Flow       Avg       Max       Total
                         Freq      Flow      Flow      Volume
  Outfall Node           Pcnt       LPS       LPS    10^6 ltr
  -----------------------------------------------------------
  CC-1                  19.26    683.00    683.00       3.043
  CC-2                  14.21    683.00    683.00       2.009
  JK-1                   8.80   1000.00   1000.00       1.746
  JK-2                   1.73   1000.00   1000.00       0.386
  WSC                   99.96    233.22    553.87       4.642
  -----------------------------------------------------------
  System                28.79   3599.22   3911.13      11.827
  
  
  ********************
  Link Flow Summary
  ********************
  
  -----------------------------------------------------------------------------
                                 Maximum  Time of Max   Maximum    Max/    Max/
                                  |Flow|   Occurrence   |Veloc|    Full    Full
  Link                 Type          LPS  days hr:min     m/sec    Flow   Depth
  -----------------------------------------------------------------------------
  1                    CONDUIT    553.87     0  02:45      2.82    0.19    0.30
  WS02003060WS02003069 CONDUIT    552.23     0  02:43      1.64    0.22    0.34
  WS02003066WSF200     CONDUIT    535.62     0  02:42      2.85    0.09    0.22
  WS02003067WS02003066 CONDUIT    535.57     0  02:42      1.21    0.17    0.42
  WS02003069WS02003072 CONDUIT    552.33     0  02:44      1.37    0.27    0.39
  WS02003072WS02003073 CONDUIT    552.19     0  02:44      1.43    1.19    0.37
  WS02004401WS02004402 CONDUIT    538.22     0  02:38      0.98    0.65    0.86
  WS02004402WS02004403 CONDUIT    538.14     0  02:38      0.97    0.77    0.88
  WS02004403WS02004404 CONDUIT    537.37     0  02:38      0.92    0.39    0.93
  WS02004404WS02004405 CONDUIT    537.51     0  02:38      1.08    5.27    0.96
  WS02004405WS02004406 CONDUIT    537.72     0  02:38      0.99    1.06    0.96
  WS02004406WS02004407 CONDUIT    537.06     0  02:39      1.04    0.24    0.63
  WS02004407WS02004409 CONDUIT    536.66     0  02:39      1.56    0.19    0.48
  WS02004409WS02004410 CONDUIT    536.16     0  02:41      1.03    0.69    0.67
  WS02004410WS02004411 CONDUIT    535.94     0  02:41      0.97    0.73    0.69
  WS02004411WS02004412 CONDUIT    535.80     0  02:42      0.92    0.76    0.69
  WS02004412WS02004413 CONDUIT    535.78     0  02:41      0.82    0.36    0.78
  WS02004413WS02003067 CONDUIT    535.49     0  02:42      1.11    0.23    0.59
  WS02006109WS02006110 CONDUIT    563.67     0  02:31      1.12    1.08    1.00
  WS02006110WS02006113 CONDUIT    570.00     0  02:43      1.39    0.52    0.79
  WS02006111WS02006112 CONDUIT    544.01     0  03:29      1.81    0.26    0.67
  WS02006112WS02006115 CONDUIT    554.34     0  02:37      0.86    0.33    0.87
  WS02006113WS02006111 CONDUIT    563.33     0  03:29      2.47    0.68    0.46
  WS02006115WS02006116 CONDUIT    542.39     0  02:37      1.05    0.70    0.76
  WS02006116WS02004401 CONDUIT    539.82     0  02:38      0.98    0.74    0.84
  WS02006228WS02006109 CONDUIT    562.02     0  02:31      1.12    2.46    1.00
  WS02006229WS02006228 CONDUIT    561.55     0  02:31      1.14    1.86    1.00
  WS02006230WS02006229 CONDUIT    561.52     0  02:31      1.46   12.50    1.00
  WS02006231WS02006230 CONDUIT    581.66     0  03:18      1.58    8.82    1.00
  WS02006232WS02006231 CONDUIT    572.67     0  02:42      1.49    1.20    1.00
  WS02006234WS02006232 CONDUIT    571.83     0  02:42      1.49    1.16    1.00
  WS02006235WS02006234 CONDUIT    567.06     0  03:18      1.47    5.98    1.00
  WS02006238WS02006235 CONDUIT    427.14     0  02:40      1.45    0.95    1.00
  WS02006239WS02006238 CONDUIT    425.83     0  02:40      1.11    1.36    1.00
  WS02006240WS02006239 CONDUIT    424.19     0  02:40      1.24    1.33    1.00
  WS02006242WS02006240 CONDUIT    421.02     0  02:45      1.13    1.67    1.00
  WS02006243WS02006242 CONDUIT    420.90     0  02:30      1.40    0.90    1.00
  WS02006245WS02006243 CONDUIT    420.85     0  02:45      1.45    1.24    1.00
  WS02006247WS02006245 CONDUIT    420.04     0  02:40      1.43    3.33    1.00
  WS02006248WS02006247 CONDUIT    419.98     0  02:40      1.44    0.91    1.00
  WS02006249WS02006248 CONDUIT    421.22     0  02:40      1.36    2.31    1.00
  WS02006251WS02006249 CONDUIT    459.02     0  00:00      1.99    1.32    1.00
  WS02006252WS02006251 CONDUIT    406.75     0  02:42     24.61    1.49    1.00
  WS02006256WS02006235 CONDUIT    288.91     0  00:00      4.23    3.06    1.00
  WSF200WS02003060     CONDUIT    535.96     0  02:42      2.06    0.12    0.28
  YS02001580YS02001583 CONDUIT    131.58     0  02:08      0.67    0.51    1.00
  YS02001583YS02001586 CONDUIT    163.15     0  02:08      0.68    0.25    1.00
  YS02001586YS02001590 CONDUIT    318.01     0  02:24      1.25    0.56    1.00
  YS02001590YS02001593 CONDUIT    317.99     0  02:13      1.12    2.00    1.00
  YS02001593YS02001596 CONDUIT    317.94     0  02:22      1.73    0.50    1.00
  YS02001596YS02001600 CONDUIT    318.01     0  02:14      1.22    0.62    1.00
  YS02001600YS02001601 CONDUIT    317.89     0  02:23      1.12    0.55    1.00
  YS02001601YS02001602 CONDUIT    519.15     0  02:07      1.84    1.88    1.00
  YS02001602YS02001605 CONDUIT    518.73     0  02:07      1.83   10.98    1.00
  YS02001605YS02001607 CONDUIT    518.11     0  02:07      1.83    2.84    1.00
  YS02001607YS02001610 CONDUIT    517.19     0  02:07      0.66    0.49    1.00
  YS02001610YS02001613 CONDUIT    518.96     0  02:07      0.66    0.60    1.00
  YS02001613YS02001616 CONDUIT    521.65     0  02:07      0.67    0.45    1.00
  YS02001616YS02001619 CONDUIT    506.57     0  02:07      0.66    0.88    1.00
  YS02001619YS02001622 CONDUIT    923.66     0  02:10      1.19    1.36    1.00
  YS02001622YS02001625 CONDUIT    925.41     0  02:07      1.18    0.49    1.00
  YS02001625YS02001629 CONDUIT    927.18     0  02:07      1.19    0.44    1.00
  YS02001629YS02163301 CONDUIT    925.21     0  02:09      1.18    1.14    1.00
  YS02001633YS02163601 CONDUIT   1386.56     0  02:10      1.77    1.46    1.00
  YS02001641YS02001644 CONDUIT   1386.16     0  02:10      1.76    4.48    1.00
  YS02001644YS02001647 CONDUIT   1808.01     0  02:10      2.30    1.06    1.00
  YS02001647YS02001649 CONDUIT   1823.17     0  02:10      2.34    0.96    1.00
  YS02001649YS02001757 CONDUIT   2033.18     0  02:10      2.59    1.23    1.00
  YS02001652YS02001649 CONDUIT    676.00     0  02:14      0.86    0.34    1.00
  YS02001655YS02001652 CONDUIT    673.25     0  02:14      1.32    0.33    1.00
  YS02001658YS02001655 CONDUIT    671.51     0  02:14      1.91    0.28    1.00
  YS02001661YS02001658 CONDUIT    696.87     0  02:12      2.33    0.27    0.99
  YS02001664YS02001661 CONDUIT    773.47     0  02:14      2.35    0.24    0.70
  YS02001745YS02001748 CONDUIT    576.69     0  02:13      2.21    0.22    0.85
  YS02001748YS02001751 CONDUIT    422.82     0  02:14      1.70    0.21    1.00
  YS02001751YS02001754 CONDUIT    423.67     0  02:14      1.43    0.20    1.00
  YS02001754YS02001757 CONDUIT    423.32     0  02:14      0.54    0.17    1.00
  YS02001757CaochengTiaoxuchi CONDUIT   3283.02     0  02:14      4.18    1.42    1.00
  YS02001759YS02001757 CONDUIT   1245.30     0  02:13      1.59    0.88    1.00
  YS02001762YS02001759 CONDUIT    735.09     0  02:13      0.94    0.85    1.00
  YS02001765YS02001762 CONDUIT    735.99     0  02:13      0.94    0.69    1.00
  YS02001767YS02001765 CONDUIT    734.03     0  02:13      0.93    0.92    1.00
  YS02001770YS02001767 CONDUIT    731.41     0  02:13      0.93    2.90    1.00
  YS02001774YS02001770 CONDUIT    339.88     0  02:11      0.43    0.22    1.00
  YS02001779YS02001774 CONDUIT    344.45     0  02:11      0.44    0.17    1.00
  YS02001783YS02001784 CONDUIT   1157.01     0  02:13      2.30    1.59    1.00
  YS02001784YS02001785 CONDUIT   1158.01     0  02:12      2.30    2.69    1.00
  YS02001786YS02001788 CONDUIT   1157.93     0  02:12      2.47    2.23    0.89
  YS02001788YS02001790 CONDUIT   1169.70     0  02:11      2.71    0.86    0.84
  YS02001790YS02001791 CONDUIT   1284.44     0  02:14      3.42    1.40    0.70
  YS02001791YS02001793 CONDUIT   1242.81     0  02:14      6.49    0.53    0.44
  YS02001793JiankangQianchi CONDUIT   1210.36     0  02:18      2.37    0.10    0.64
  YS02001882YS02001884 CONDUIT     69.58     0  02:09      0.09    0.08    1.00
  YS02001884YS02001887 CONDUIT     80.48     0  02:09      0.10    0.11    1.00
  YS02001887YS02001890 CONDUIT    562.79     0  02:13      0.72    0.96    1.00
  YS02001890YS02001895 CONDUIT    514.52     0  02:14      0.66    0.24    1.00
  YS02001895YS02001898 CONDUIT    514.29     0  02:14      0.65    0.89    1.00
  YS02001898YS02001901 CONDUIT    514.15     0  02:14      0.65    0.33    1.00
  YS02001901YS02001904 CONDUIT    514.02     0  02:14      0.65    0.80    1.00
  YS02001904YS02001907 CONDUIT    514.13     0  02:15      0.65    0.18    1.00
  YS02001907YS02006553 CONDUIT    795.65     0  02:25      0.88    0.94    1.00
  YS02001910YS02001907 CONDUIT   1028.59     0  02:12      1.31    0.58    1.00
  YS02001915YS02001910 CONDUIT   1028.73     0  02:12      1.31    0.51    1.00
  YS02001918YS02001915 CONDUIT    437.20     0  02:12      0.56    0.24    1.00
  YS02001920YS02001918 CONDUIT    435.63     0  02:12      0.66    0.42    1.00
  YS02001923YS02001920 CONDUIT    431.77     0  02:12      0.69    0.19    1.00
  YS02001926YS02001923 CONDUIT    437.20     0  02:11      0.96    0.62    1.00
  YS02001929YS02001926 CONDUIT    388.46     0  02:12      1.13    0.18    1.00
  YS02006553YS02006556 CONDUIT    795.50     0  02:25      1.01    0.68    1.00
  YS02006556YS02006558 CONDUIT    797.03     0  02:25      1.01    0.63    1.00
  YS02006558YS02006561 CONDUIT   1175.02     0  02:11      4.16    2.60    1.00
  YS02006561YS02001783 CONDUIT   1157.04     0  02:13      2.30    0.60    1.00
  YS02163301YS02001633 CONDUIT    925.27     0  02:09      1.18    0.87    1.00
  YS02163601YS02164001 CONDUIT   1386.87     0  02:10      1.77    1.23    1.00
  YS02164001YS02001641 CONDUIT   1386.35     0  02:10      1.77    1.89    1.00
  CC-R1                PUMP       683.00     0  00:00              1.00
  CC-R2                PUMP       683.00     0  00:00              1.00
  CC-S1                PUMP       200.00     0  00:00              1.00
  CC-S2                PUMP       200.00     0  00:00              1.00
  JK-R1                PUMP      1000.00     0  00:00              1.00
  JK-R2                PUMP      1000.00     0  00:00              1.00
  JK-S                 PUMP       300.00     0  00:00              1.00
  
  
  ***************************
  Flow Classification Summary
  ***************************
  
  -------------------------------------------------------------------------------------
                      Adjusted    ---------- Fraction of Time in Flow Class ---------- 
                       /Actual         Up    Down  Sub   Sup   Up    Down  Norm  Inlet 
  Conduit               Length    Dry  Dry   Dry   Crit  Crit  Crit  Crit  Ltd   Ctrl  
  -------------------------------------------------------------------------------------
  1                       1.00   0.00  0.00  0.00  0.00  1.00  0.00  0.00  0.49  0.00
  WS02003060WS02003069    1.00   0.00  0.00  0.00  0.99  0.01  0.00  0.00  0.74  0.00
  WS02003066WSF200        1.00   0.13  0.00  0.00  0.00  0.87  0.00  0.00  0.79  0.00
  WS02003067WS02003066    1.00   0.10  0.02  0.00  0.88  0.00  0.00  0.00  0.00  0.00
  WS02003069WS02003072    1.00   0.00  0.00  0.00  0.99  0.01  0.00  0.00  0.78  0.00
  WS02003072WS02003073    1.00   0.00  0.00  0.00  0.00  0.00  0.00  1.00  0.00  0.00
  WS02004401WS02004402    1.00   0.02  0.00  0.00  0.98  0.00  0.00  0.00  0.00  0.00
  WS02004402WS02004403    1.00   0.02  0.00  0.00  0.97  0.00  0.00  0.00  0.00  0.00
  WS02004403WS02004404    1.00   0.00  0.03  0.00  0.97  0.00  0.00  0.00  0.00  0.00
  WS02004404WS02004405    1.00   0.00  0.00  0.00  1.00  0.00  0.00  0.00  0.00  0.00
  WS02004405WS02004406    1.00   0.00  0.00  0.00  1.00  0.00  0.00  0.00  0.00  0.00
  WS02004406WS02004407    1.00   0.00  0.05  0.00  0.95  0.00  0.00  0.00  0.00  0.00
  WS02004407WS02004409    1.00   0.05  0.00  0.00  0.94  0.01  0.00  0.00  0.94  0.00
  WS02004409WS02004410    1.00   0.05  0.00  0.00  0.95  0.00  0.00  0.00  0.03  0.00
  WS02004410WS02004411    1.00   0.05  0.00  0.00  0.95  0.00  0.00  0.00  0.01  0.00
  WS02004411WS02004412    1.00   0.05  0.00  0.00  0.95  0.00  0.00  0.00  0.00  0.00
  WS02004412WS02004413    1.00   0.05  0.00  0.00  0.94  0.00  0.00  0.00  0.01  0.00
  WS02004413WS02003067    1.00   0.06  0.04  0.00  0.00  0.00  0.90  0.00  0.00  0.00
  WS02006109WS02006110    1.00   0.00  0.01  0.00  0.98  0.00  0.01  0.00  0.00  0.00
  WS02006110WS02006113    1.00   0.01  0.01  0.00  0.98  0.00  0.00  0.00  0.00  0.00
  WS02006111WS02006112    1.00   0.02  0.00  0.00  0.98  0.00  0.00  0.00  0.98  0.00
  WS02006112WS02006115    1.00   0.02  0.00  0.00  0.97  0.00  0.00  0.00  0.00  0.00
  WS02006113WS02006111    1.00   0.02  0.00  0.00  0.00  0.98  0.00  0.00  0.12  0.00
  WS02006115WS02006116    1.00   0.02  0.00  0.00  0.97  0.00  0.00  0.01  0.00  0.00
  WS02006116WS02004401    1.00   0.02  0.00  0.00  0.98  0.00  0.00  0.00  0.00  0.00
  WS02006228WS02006109    1.00   0.00  0.00  0.00  1.00  0.00  0.00  0.00  0.00  0.00
  WS02006229WS02006228    1.00   0.00  0.00  0.00  0.99  0.00  0.00  0.01  0.00  0.00
  WS02006230WS02006229    1.00   0.00  0.00  0.00  0.99  0.00  0.00  0.01  0.01  0.00
  WS02006231WS02006230    1.00   0.00  0.00  0.00  0.21  0.00  0.78  0.00  0.00  0.00
  WS02006232WS02006231    1.00   0.00  0.00  0.00  0.99  0.00  0.01  0.00  0.00  0.00
  WS02006234WS02006232    1.00   0.00  0.00  0.00  1.00  0.00  0.00  0.00  0.20  0.00
  WS02006235WS02006234    1.00   0.00  0.00  0.00  0.72  0.00  0.28  0.00  0.00  0.00
  WS02006238WS02006235    1.00   0.00  0.00  0.00  1.00  0.00  0.00  0.00  0.00  0.00
  WS02006239WS02006238    1.00   0.00  0.00  0.00  1.00  0.00  0.00  0.00  0.38  0.00
  WS02006240WS02006239    1.00   0.00  0.00  0.00  0.54  0.00  0.00  0.45  0.03  0.00
  WS02006242WS02006240    1.00   0.00  0.00  0.00  0.98  0.00  0.02  0.00  0.00  0.00
  WS02006243WS02006242    1.00   0.00  0.00  0.00  0.98  0.00  0.00  0.02  0.58  0.00
  WS02006245WS02006243    1.00   0.00  0.00  0.00  0.66  0.00  0.00  0.33  0.00  0.00
  WS02006247WS02006245    1.00   0.00  0.00  0.00  0.98  0.00  0.00  0.02  0.00  0.00
  WS02006248WS02006247    1.00   0.00  0.00  0.00  0.99  0.00  0.00  0.01  0.29  0.00
  WS02006249WS02006248    1.00   0.00  0.00  0.00  0.43  0.00  0.57  0.00  0.00  0.00
  WS02006251WS02006249    1.00   0.00  0.00  0.00  0.99  0.01  0.00  0.00  0.59  0.00
  WS02006252WS02006251    1.00   0.00  0.63  0.00  0.09  0.00  0.28  0.00  0.00  0.00
  WS02006256WS02006235    1.00   0.00  0.00  0.00  1.00  0.00  0.00  0.00  0.00  0.00
  WSF200WS02003060        1.00   0.00  0.13  0.00  0.38  0.49  0.00  0.00  0.54  0.00
  YS02001580YS02001583    1.00   0.26  0.57  0.00  0.17  0.00  0.00  0.00  0.66  0.00
  YS02001583YS02001586    1.00   0.43  0.35  0.00  0.22  0.00  0.00  0.00  0.67  0.00
  YS02001586YS02001590    1.00   0.13  0.00  0.00  0.41  0.05  0.00  0.42  0.37  0.00
  YS02001590YS02001593    1.00   0.13  0.01  0.00  0.09  0.00  0.78  0.00  0.00  0.00
  YS02001593YS02001596    1.00   0.14  0.00  0.00  0.10  0.01  0.00  0.75  0.02  0.00
  YS02001596YS02001600    1.00   0.14  0.00  0.00  0.17  0.01  0.00  0.68  0.05  0.00
  YS02001600YS02001601    1.00   0.13  0.01  0.00  0.86  0.00  0.00  0.00  0.63  0.00
  YS02001601YS02001602    1.00   0.13  0.01  0.00  0.86  0.00  0.00  0.00  0.00  0.00
  YS02001602YS02001605    1.00   0.14  0.00  0.00  0.86  0.00  0.00  0.00  0.00  0.00
  YS02001605YS02001607    1.00   0.14  0.00  0.00  0.86  0.00  0.00  0.00  0.00  0.00
  YS02001607YS02001610    1.00   0.13  0.01  0.00  0.86  0.00  0.00  0.00  0.02  0.00
  YS02001610YS02001613    1.00   0.13  0.00  0.00  0.87  0.00  0.00  0.00  0.01  0.00
  YS02001613YS02001616    1.00   0.13  0.00  0.00  0.87  0.00  0.00  0.00  0.01  0.00
  YS02001616YS02001619    1.00   0.13  0.00  0.00  0.87  0.00  0.00  0.00  0.00  0.00
  YS02001619YS02001622    1.00   0.13  0.00  0.00  0.87  0.00  0.00  0.00  0.29  0.00
  YS02001622YS02001625    1.00   0.13  0.00  0.00  0.87  0.00  0.00  0.00  0.06  0.00
  YS02001625YS02001629    1.00   0.13  0.06  0.00  0.13  0.00  0.68  0.00  0.00  0.00
  YS02001629YS02163301    1.00   0.16  0.01  0.00  0.83  0.00  0.00  0.00  0.00  0.00
  YS02001633YS02163601    1.00   0.00  0.01  0.00  0.99  0.00  0.00  0.00  0.15  0.00
  YS02001641YS02001644    1.00   0.00  0.01  0.00  0.99  0.00  0.00  0.00  0.00  0.00
  YS02001644YS02001647    1.00   0.00  0.19  0.00  0.81  0.00  0.00  0.00  0.00  0.00
  YS02001647YS02001649    1.00   0.00  0.19  0.00  0.52  0.29  0.00  0.00  0.57  0.00
  YS02001649YS02001757    1.00   0.00  0.00  0.00  0.85  0.14  0.00  0.00  0.47  0.00
  YS02001652YS02001649    1.00   0.00  0.00  0.00  0.96  0.04  0.00  0.00  0.77  0.00
  YS02001655YS02001652    1.00   0.00  0.00  0.00  0.15  0.01  0.00  0.84  0.06  0.00
  YS02001658YS02001655    1.00   0.00  0.15  0.00  0.63  0.23  0.00  0.00  0.73  0.00
  YS02001661YS02001658    1.00   0.15  0.00  0.00  0.47  0.39  0.00  0.00  0.73  0.00
  YS02001664YS02001661    1.00   0.13  0.00  0.00  0.78  0.10  0.00  0.00  0.86  0.00
  YS02001745YS02001748    1.00   0.00  0.00  0.00  0.06  0.01  0.00  0.93  0.04  0.00
  YS02001748YS02001751    1.00   0.00  0.00  0.00  0.81  0.19  0.00  0.00  0.78  0.00
  YS02001751YS02001754    1.00   0.00  0.00  0.00  0.13  0.01  0.00  0.86  0.04  0.00
  YS02001754YS02001757    1.00   0.00  0.00  0.00  1.00  0.00  0.00  0.00  0.85  0.00
  YS02001757CaochengTiaoxuchi    1.00   0.00  0.00  0.00  0.98  0.02  0.00  0.00  0.54  0.00
  YS02001759YS02001757    1.00   0.00  0.00  0.00  1.00  0.00  0.00  0.00  0.54  0.00
  YS02001762YS02001759    1.00   0.00  0.00  0.00  1.00  0.00  0.00  0.00  0.07  0.00
  YS02001765YS02001762    1.00   0.00  0.00  0.00  1.00  0.00  0.00  0.00  0.70  0.00
  YS02001767YS02001765    1.00   0.00  0.00  0.00  1.00  0.00  0.00  0.00  0.01  0.00
  YS02001770YS02001767    1.00   0.00  0.00  0.00  1.00  0.00  0.00  0.00  0.00  0.00
  YS02001774YS02001770    1.00   0.00  0.14  0.00  0.69  0.00  0.17  0.00  0.04  0.00
  YS02001779YS02001774    1.00   0.00  0.00  0.00  1.00  0.00  0.00  0.00  0.80  0.00
  YS02001783YS02001784    1.00   0.00  0.19  0.00  0.81  0.00  0.00  0.00  0.56  0.00
  YS02001784YS02001785    1.00   0.00  0.00  0.00  1.00  0.00  0.00  0.00  0.18  0.00
  YS02001786YS02001788    1.00   0.00  0.00  0.00  0.80  0.20  0.00  0.00  0.00  0.00
  YS02001788YS02001790    1.00   0.00  0.00  0.00  0.22  0.78  0.00  0.00  0.83  0.00
  YS02001790YS02001791    1.00   0.00  0.00  0.00  0.01  0.99  0.00  0.00  0.15  0.00
  YS02001791YS02001793    1.00   0.00  0.00  0.00  0.00  1.00  0.00  0.00  0.01  0.00
  YS02001793JiankangQianchi    1.00   0.00  0.00  0.00  1.00  0.00  0.00  0.00  0.96  0.00
  YS02001882YS02001884    1.00   0.16  0.01  0.00  0.83  0.00  0.00  0.00  0.00  0.00
  YS02001884YS02001887    1.00   0.06  0.05  0.00  0.89  0.00  0.00  0.00  0.00  0.00
  YS02001887YS02001890    1.00   0.00  0.00  0.00  0.97  0.00  0.03  0.00  0.00  0.00
  YS02001890YS02001895    1.00   0.00  0.17  0.00  0.82  0.00  0.00  0.00  0.00  0.00
  YS02001895YS02001898    1.00   0.18  0.00  0.00  0.80  0.00  0.02  0.00  0.00  0.00
  YS02001898YS02001901    1.00   0.18  0.00  0.00  0.82  0.00  0.00  0.00  0.01  0.00
  YS02001901YS02001904    1.00   0.18  0.00  0.00  0.82  0.00  0.00  0.00  0.00  0.00
  YS02001904YS02001907    1.00   0.00  0.17  0.00  0.82  0.00  0.00  0.00  0.00  0.00
  YS02001907YS02006553    1.00   0.00  0.02  0.00  0.98  0.00  0.00  0.00  0.00  0.00
  YS02001910YS02001907    1.00   0.00  0.00  0.00  0.97  0.00  0.00  0.03  0.12  0.00
  YS02001915YS02001910    1.00   0.00  0.00  0.00  0.96  0.04  0.00  0.00  0.17  0.00
  YS02001918YS02001915    1.00   0.00  0.01  0.00  0.98  0.02  0.00  0.00  0.77  0.00
  YS02001920YS02001918    1.00   0.00  0.01  0.00  0.99  0.00  0.00  0.00  0.00  0.00
  YS02001923YS02001920    1.00   0.00  0.00  0.00  1.00  0.00  0.00  0.00  0.94  0.00
  YS02001926YS02001923    1.00   0.00  0.07  0.00  0.04  0.00  0.88  0.00  0.00  0.00
  YS02001929YS02001926    1.00   0.00  0.13  0.00  0.87  0.00  0.00  0.00  0.84  0.00
  YS02006553YS02006556    1.00   0.01  0.00  0.00  0.99  0.00  0.00  0.00  0.03  0.00
  YS02006556YS02006558    1.00   0.00  0.00  0.00  1.00  0.00  0.00  0.00  0.00  0.00
  YS02006558YS02006561    1.00   0.19  0.00  0.00  0.04  0.77  0.00  0.00  0.19  0.00
  YS02006561YS02001783    1.00   0.19  0.00  0.00  0.07  0.74  0.00  0.00  0.70  0.00
  YS02163301YS02001633    1.00   0.00  0.16  0.00  0.84  0.00  0.00  0.00  0.00  0.00
  YS02163601YS02164001    1.00   0.00  0.08  0.00  0.92  0.00  0.00  0.00  0.00  0.00
  YS02164001YS02001641    1.00   0.01  0.07  0.00  0.92  0.00  0.00  0.00  0.06  0.00
  
  
  *************************
  Conduit Surcharge Summary
  *************************
  
  ----------------------------------------------------------------------------
                                                           Hours        Hours 
                         --------- Hours Full --------   Above Full   Capacity
  Conduit                Both Ends  Upstream  Dnstream   Normal Flow   Limited
  ----------------------------------------------------------------------------
  WS02003072WS02003073        0.01      0.01      0.01      0.87         0.01
  WS02004404WS02004405        0.01      0.01      0.01      2.87         0.01
  WS02004405WS02004406        0.01      0.01      0.01      0.50         0.01
  WS02006109WS02006110        0.54      0.54      1.65      0.64         0.01
  WS02006110WS02006113        0.01      0.01      1.64      0.01         0.01
  WS02006111WS02006112        0.01      0.01      1.77      0.01         0.01
  WS02006112WS02006115        0.01      0.01      0.56      0.01         0.01
  WS02006228WS02006109        1.62      1.66      1.62      2.03         1.62
  WS02006229WS02006228        1.62      1.63      1.62      1.77         1.61
  WS02006230WS02006229        1.69      1.73      1.69      3.60         1.69
  WS02006231WS02006230        0.55      0.55      0.70      3.25         0.01
  WS02006232WS02006231        0.65      0.65      1.65      0.71         0.01
  WS02006234WS02006232        1.58      1.58      1.65      0.70         0.70
  WS02006235WS02006234        0.90      0.91      1.60      3.06         0.01
  WS02006238WS02006235        1.61      1.61      1.65      0.01         0.01
  WS02006239WS02006238        1.62      1.65      1.63      1.62         1.46
  WS02006240WS02006239        1.57      1.59      1.59      1.62         1.40
  WS02006242WS02006240        1.59      1.59      1.63      1.74         0.01
  WS02006243WS02006242        1.58      1.58      1.61      0.01         0.04
  WS02006245WS02006243        1.58      1.58      1.58      1.04         1.03
  WS02006247WS02006245        1.58      1.58      1.58      2.87         1.57
  WS02006248WS02006247        1.57      1.57      1.58      0.01         0.04
  WS02006249WS02006248        1.57      1.57      1.57      2.81         0.01
  WS02006251WS02006249        1.57      1.57      1.57      1.68         1.51
  WS02006252WS02006251        1.71      1.71      1.72      1.71         0.01
  WS02006256WS02006235        3.08      3.13      4.95      1.02         0.01
  YS02001580YS02001583        0.39      0.39      0.43      0.01         0.01
  YS02001583YS02001586        0.40      0.40      0.52      0.01         0.01
  YS02001586YS02001590        0.53      0.53      0.58      0.01         0.01
  YS02001590YS02001593        0.59      0.59      0.60      0.61         0.01
  YS02001593YS02001596        0.60      0.60      0.69      0.01         0.01
  YS02001596YS02001600        0.73      0.73      0.82      0.01         0.01
  YS02001600YS02001601        0.88      0.88      1.16      0.01         0.01
  YS02001601YS02001602        1.05      1.05      1.20      0.83         0.01
  YS02001602YS02001605        0.99      0.99      1.05      2.04         0.01
  YS02001605YS02001607        0.95      0.99      0.95      1.13         0.95
  YS02001607YS02001610        0.56      0.56      0.58      0.01         0.01
  YS02001610YS02001613        0.55      0.55      0.58      0.01         0.01
  YS02001613YS02001616        0.51      0.51      0.55      0.01         0.01
  YS02001616YS02001619        0.50      0.50      0.51      0.01         0.01
  YS02001619YS02001622        0.50      0.50      0.50      0.61         0.47
  YS02001622YS02001625        0.50      0.50      0.66      0.01         0.01
  YS02001625YS02001629        0.46      0.46      0.66      0.01         0.01
  YS02001629YS02163301        0.65      0.65      0.66      0.19         0.16
  YS02001633YS02163601        0.67      0.67      0.70      0.32         0.33
  YS02001641YS02001644        0.58      0.61      0.58      1.24         0.57
  YS02001644YS02001647        0.39      0.39      0.58      0.04         0.01
  YS02001647YS02001649        0.39      0.39      0.48      0.01         0.01
  YS02001649YS02001757        0.48      0.48      0.53      0.09         0.11
  YS02001652YS02001649        0.34      0.34      0.48      0.01         0.01
  YS02001655YS02001652        0.21      0.21      0.32      0.01         0.01
  YS02001658YS02001655        0.08      0.08      0.21      0.01         0.01
  YS02001661YS02001658        0.01      0.01      0.08      0.01         0.01
  YS02001664YS02001661        0.01      0.01      0.01      0.01         0.01
  YS02001745YS02001748        0.01      0.01      0.01      0.01         0.01
  YS02001748YS02001751        0.04      0.04      0.13      0.01         0.01
  YS02001751YS02001754        0.13      0.13      0.24      0.01         0.01
  YS02001754YS02001757        0.28      0.28      0.53      0.01         0.01
  YS02001757CaochengTiaoxuchi        0.50      0.53      1.58      0.26         0.21
  YS02001759YS02001757        0.44      0.44      0.53      0.01         0.01
  YS02001762YS02001759        0.42      0.42      0.44      0.01         0.01
  YS02001765YS02001762        0.38      0.38      0.42      0.01         0.01
  YS02001767YS02001765        0.36      0.36      0.38      0.01         0.02
  YS02001770YS02001767        0.36      0.36      0.36      0.39         0.26
  YS02001774YS02001770        0.33      0.33      0.40      0.01         0.01
  YS02001779YS02001774        0.25      0.25      0.40      0.01         0.01
  YS02001783YS02001784        0.37      0.39      0.37      0.52         0.37
  YS02001784YS02001785        0.27      0.37      0.27      0.71         0.27
  YS02001786YS02001788        0.01      0.27      0.01      0.61         0.01
  YS02001790YS02001791        0.01      0.01      0.01      0.35         0.01
  YS02001793JiankangQianchi        0.01      0.01      7.70      0.01         0.01
  YS02001882YS02001884        0.34      0.34      0.35      0.01         0.01
  YS02001884YS02001887        0.37      0.37      0.38      0.01         0.01
  YS02001887YS02001890        0.39      0.39      0.40      0.01         0.01
  YS02001890YS02001895        0.33      0.33      0.42      0.01         0.01
  YS02001895YS02001898        0.32      0.32      0.33      0.01         0.01
  YS02001898YS02001901        0.33      0.33      0.37      0.01         0.01
  YS02001901YS02001904        0.36      0.36      0.37      0.01         0.01
  YS02001904YS02001907        0.36      0.36      0.60      0.01         0.01
  YS02001907YS02006553        0.72      0.72      0.79      0.01         0.01
  YS02001910YS02001907        0.41      0.41      0.58      0.01         0.01
  YS02001915YS02001910        0.34      0.34      0.41      0.01         0.01
  YS02001918YS02001915        0.26      0.26      0.34      0.01         0.01
  YS02001920YS02001918        0.26      0.26      0.27      0.01         0.01
  YS02001923YS02001920        0.22      0.22      0.27      0.01         0.01
  YS02001926YS02001923        0.01      0.01      0.01      0.01         0.01
  YS02001929YS02001926        0.01      0.01      0.01      0.01         0.01
  YS02006553YS02006556        0.50      0.50      0.60      0.01         0.01
  YS02006556YS02006558        0.55      0.55      0.61      0.01         0.01
  YS02006558YS02006561        0.29      0.49      0.29      0.68         0.29
  YS02006561YS02001783        0.23      0.23      0.39      0.01         0.01
  YS02163301YS02001633        0.66      0.66      0.69      0.01         0.01
  YS02163601YS02164001        0.62      0.62      0.70      0.07         0.01
  YS02164001YS02001641        0.61      0.62      0.61      0.62         0.51
  
  
  ***************
  Pumping Summary
  ***************
  
  ---------------------------------------------------------------------------------------------------------
                                                  Min       Avg       Max     Total     Power    % Time Off
                        Percent   Number of      Flow      Flow      Flow    Volume     Usage    Pump Curve
  Pump                 Utilized   Start-Ups       LPS       LPS       LPS  10^6 ltr     Kw-hr    Low   High
  ---------------------------------------------------------------------------------------------------------
  CC-R1                   15.47           3      0.00    683.00    683.00     3.043     55.89    0.0   20.2
  CC-R2                   10.21           3      0.00    683.00    683.00     2.008     36.82    0.0   30.6
  CC-S1                   36.16           5      0.00    200.00    200.00     2.083     12.24    0.0    0.0
  CC-S2                   22.43           3      0.00    200.00    200.00     1.292      7.52    0.0    0.0
  JK-R1                    6.07          10      0.00   1000.00   1000.00     1.747     20.53    0.0    0.0
  JK-R2                    1.34           5      0.00   1000.00   1000.00     0.385      3.05    0.0    0.0
  JK-S                    12.75          15      0.00    300.00    300.00     1.102     15.19    0.0    0.0
  

  Analysis begun on:  Tue Apr 15 14:18:11 2025
  Analysis ended on:  Tue Apr 15 14:18:13 2025
  Total elapsed time: 00:00:02