
  EPA STORM WATER MANAGEMENT MODEL - VERSION 5.2 (Build 5.2.4)
  PYSWMM TOOLKIT API - VERSION v1.0 (2023-11-27)
  ------------------------------------------------------------

  WARNING 04: minimum elevation drop used for Conduit WS02004404WS02004405
  WARNING 03: negative offset ignored for Link YS02001904YS02001907
  
  ****************
  Analysis Options
  ****************
  Flow Units ............... LPS
  Process Models:
    Rainfall/Runoff ........ YES
    RDII ................... NO
    Snowmelt ............... NO
    Groundwater ............ NO
    Flow Routing ........... YES
    Ponding Allowed ........ NO
    Water Quality .......... NO
  Infiltration Method ...... HORTON
  Flow Routing Method ...... DYNWAVE
  Surcharge Method ......... EXTRAN
  Starting Date ............ 08/28/2015 08:00:00
  Ending Date .............. 08/28/2015 16:00:00
  Antecedent Dry Days ...... 8.0
  Report Time Step ......... 00:01:00
  Wet Time Step ............ 00:01:00
  Dry Time Step ............ 00:01:00
  Routing Time Step ........ 30.00 sec
  Variable Time Step ....... YES
  Maximum Trials ........... 8
  Number of Threads ........ 4
  Head Tolerance ........... 0.001500 m
  
  
  **************************        Volume         Depth
  Runoff Quantity Continuity     hectare-m            mm
  **************************     ---------       -------
  Total Precipitation ......         2.238        67.478
  Evaporation Loss .........         0.000         0.000
  Infiltration Loss ........         0.100         3.014
  Surface Runoff ...........         2.106        63.484
  Final Storage ............         0.033         0.995
  Continuity Error (%) .....        -0.021
  
  
  **************************        Volume        Volume
  Flow Routing Continuity        hectare-m      10^6 ltr
  **************************     ---------     ---------
  Dry Weather Inflow .......         0.025         0.251
  Wet Weather Inflow .......         2.106        21.055
  Groundwater Inflow .......         0.000         0.000
  RDII Inflow ..............         0.000         0.000
  External Inflow ..........         0.083         0.834
  External Outflow .........         1.469        14.687
  Flooding Loss ............         0.711         7.113
  Evaporation Loss .........         0.000         0.000
  Exfiltration Loss ........         0.000         0.000
  Initial Stored Volume ....         0.243         2.431
  Final Stored Volume ......         0.281         2.812
  Continuity Error (%) .....        -0.167
  
  
  *************************
  Highest Continuity Errors
  *************************
  Node YS02001583 (-5.78%)
  Node YS02001884 (5.33%)
  
  
  ***************************
  Time-Step Critical Elements
  ***************************
  Link WS02006252WS02006251 (45.83%)
  Link WS02004404WS02004405 (18.70%)
  Link WS02006238WS02006235 (9.32%)
  Link YS02001791YS02001793 (7.89%)
  Link WS02006235WS02006234 (4.17%)
  
  
  ********************************
  Highest Flow Instability Indexes
  ********************************
  Link WS02006113WS02006111 (46)
  Link WS02006111WS02006112 (24)
  Link WS02004404WS02004405 (20)
  Link WS02004403WS02004404 (18)
  Link WS02006238WS02006235 (18)
  
  
  *********************************
  Most Frequent Nonconverging Nodes
  *********************************
  Node CC-1 (13.19%)
  Node CC-2 (13.19%)
  Node JK-1 (13.19%)
  Node JK-2 (13.19%)
  Node WSC (13.19%)
  
  
  *************************
  Routing Time Step Summary
  *************************
  Minimum Time Step           :     0.01 sec
  Average Time Step           :     2.05 sec
  Maximum Time Step           :     7.04 sec
  % of Time in Steady State   :     0.00
  Average Iterations per Step :     3.14
  % of Steps Not Converging   :    13.19
  Time Step Frequencies       :
     30.000 - 13.228 sec      :     0.00 %
     13.228 -  5.833 sec      :    10.96 %
      5.833 -  2.572 sec      :    16.37 %
      2.572 -  1.134 sec      :    21.19 %
      1.134 -  0.500 sec      :    51.48 %
  
  
  ***************************
  Subcatchment Runoff Summary
  ***************************
  
  ------------------------------------------------------------------------------------------------------------------------------
                            Total      Total      Total      Total     Imperv       Perv      Total       Total     Peak  Runoff
                           Precip      Runon       Evap      Infil     Runoff     Runoff     Runoff      Runoff   Runoff   Coeff
  Subcatchment                 mm         mm         mm         mm         mm         mm         mm    10^6 ltr      LPS
  ------------------------------------------------------------------------------------------------------------------------------
  sub60                     67.48       0.00       0.00       1.81      58.18       6.29      64.47        0.85   569.62   0.955
  sub61                     67.48       0.00       0.00       2.63      54.88       8.85      63.72        1.17   790.33   0.944
  sub62                     67.48       0.00       0.00       1.21      60.79       4.19      64.99        1.78  1115.10   0.963
  sub63                     67.48       0.00       0.00       4.84      46.94      14.73      61.67        1.40   890.37   0.914
  sub64                     67.48       0.00       0.00       2.45      56.15       7.68      63.83        1.53   906.48   0.946
  sub65                     67.48       0.00       0.00       2.12      57.45       6.66      64.11        1.76  1015.99   0.950
  sub66                     67.48       0.00       0.00       6.00      46.83      13.57      60.41        2.82  1333.55   0.895
  sub67                     67.48       0.00       0.00       1.16      60.84       4.24      65.07        1.21   854.20   0.964
  sub68                     67.48       0.00       0.00       2.18      56.85       7.27      64.12        1.76  1143.87   0.950
  sub69                     67.48       0.00       0.00       1.94      57.25       8.19      65.43        2.42  1352.38   0.970
  sub70                     67.48       0.00       0.00       6.47      44.37      16.47      60.84        1.76   749.82   0.902
  sub71                     67.48       0.00       0.00       1.24      60.75       4.16      64.91        1.70   982.11   0.962
  sub72                     67.48       0.00       0.00       1.10      61.35       3.62      64.98        0.89   477.00   0.963
  
  
  ******************
  Node Depth Summary
  ******************
  
  ---------------------------------------------------------------------------------
                                 Average  Maximum  Maximum  Time of Max    Reported
                                   Depth    Depth      HGL   Occurrence   Max Depth
  Node                 Type       Meters   Meters   Meters  days hr:min      Meters
  ---------------------------------------------------------------------------------
  WS02003060           JUNCTION     0.24     0.38     5.32     0  02:38        0.38
  WS02003066           JUNCTION     0.20     0.30     5.85     0  02:38        0.30
  WS02003067           JUNCTION     0.51     0.70     6.02     0  02:37        0.70
  WS02003069           JUNCTION     0.27     0.43     5.01     0  03:08        0.43
  WS02003072           JUNCTION     0.33     0.50     4.87     0  03:09        0.50
  WS02003073           JUNCTION     0.19     0.30     4.36     0  02:39        0.30
  WS02004401           JUNCTION     0.61     0.87     6.87     0  02:35        0.87
  WS02004402           JUNCTION     0.64     0.90     6.86     0  03:06        0.90
  WS02004403           JUNCTION     0.66     0.92     6.85     0  02:34        0.92
  WS02004404           JUNCTION     0.74     1.05     6.90     0  02:34        1.00
  WS02004405           JUNCTION     0.72     0.97     6.82     0  02:36        0.97
  WS02004406           JUNCTION     0.73     0.96     6.79     0  03:05        0.96
  WS02004407           JUNCTION     0.18     0.30     6.61     0  02:36        0.30
  WS02004409           JUNCTION     0.40     0.67     6.44     0  02:36        0.67
  WS02004410           JUNCTION     0.42     0.68     6.40     0  02:36        0.68
  WS02004411           JUNCTION     0.44     0.69     6.37     0  02:37        0.69
  WS02004412           JUNCTION     0.47     0.70     6.34     0  02:37        0.70
  WS02004413           JUNCTION     0.63     0.86     6.33     0  02:37        0.86
  WS02006109           JUNCTION     0.66     1.13     7.75     0  02:26        1.01
  WS02006110           JUNCTION     0.66     1.17     7.75     0  02:44        0.96
  WS02006111           JUNCTION     0.18     0.29     6.99     0  02:58        0.29
  WS02006112           JUNCTION     0.76     1.09     6.97     0  02:53        1.08
  WS02006113           JUNCTION     0.28     0.46     7.35     0  02:55        0.46
  WS02006115           JUNCTION     0.49     0.77     6.91     0  02:35        0.77
  WS02006116           JUNCTION     0.58     0.85     6.89     0  02:35        0.85
  WS02006228           JUNCTION     0.65     1.28     7.93     0  02:21        1.20
  WS02006229           JUNCTION     0.63     1.32     8.01     0  02:44        1.32
  WS02006230           JUNCTION     0.63     1.74     8.48     0  02:44        1.74
  WS02006231           JUNCTION     0.43     1.27     8.39     0  02:44        1.27
  WS02006232           JUNCTION     0.57     1.43     8.47     0  02:10        1.34
  WS02006234           JUNCTION     0.49     1.57     8.72     0  02:21        1.57
  WS02006235           JUNCTION     0.53     1.81     8.97     0  02:21        1.81
  WS02006238           JUNCTION     0.56     1.87     9.02     0  02:21        1.87
  WS02006239           JUNCTION     0.53     1.83     9.04     0  02:21        1.83
  WS02006240           JUNCTION     0.50     1.74     9.03     0  02:21        1.74
  WS02006242           JUNCTION     0.56     1.55     8.82     0  02:10        1.55
  WS02006243           JUNCTION     0.47     1.48     8.90     0  01:50        1.37
  WS02006245           JUNCTION     0.47     1.30     8.78     0  02:10        1.18
  WS02006247           JUNCTION     0.49     1.24     8.74     0  02:10        1.18
  WS02006248           JUNCTION     0.46     1.10     8.69     0  01:54        1.10
  WS02006249           JUNCTION     0.49     1.09     8.69     0  01:54        1.09
  WS02006251           JUNCTION     0.48     1.61     9.28     0  01:54        1.36
  WS02006252           JUNCTION     0.35     1.50     9.74     0  00:00        0.89
  WS02006256           JUNCTION     1.05     2.35     9.28     0  00:00        2.35
  WSF200               JUNCTION     0.17     0.29     5.52     0  02:38        0.29
  YS02001580           JUNCTION     0.09     1.05     9.59     0  01:53        0.77
  YS02001583           JUNCTION     0.12     0.98     9.47     0  01:53        0.82
  YS02001586           JUNCTION     0.19     1.13     9.30     0  01:53        1.13
  YS02001590           JUNCTION     0.29     1.38     9.24     0  01:53        1.38
  YS02001593           JUNCTION     0.22     1.30     9.16     0  01:53        1.29
  YS02001596           JUNCTION     0.30     1.66     9.08     0  02:25        1.66
  YS02001600           JUNCTION     0.36     1.86     8.99     0  01:53        1.86
  YS02001601           JUNCTION     0.55     2.06     8.90     0  01:52        2.06
  YS02001602           JUNCTION     0.46     1.87     8.77     0  01:52        1.87
  YS02001605           JUNCTION     0.43     1.78     8.68     0  01:53        1.78
  YS02001607           JUNCTION     0.43     1.68     8.53     0  02:21        1.68
  YS02001610           JUNCTION     0.47     1.68     8.48     0  01:52        1.68
  YS02001613           JUNCTION     0.43     1.66     8.51     0  01:52        1.66
  YS02001616           JUNCTION     0.36     1.61     8.52     0  01:52        1.61
  YS02001619           JUNCTION     0.34     1.61     8.54     0  01:52        1.61
  YS02001622           JUNCTION     0.32     1.62     8.52     0  01:52        1.57
  YS02001625           JUNCTION     0.60     1.78     8.38     0  01:53        1.78
  YS02001629           JUNCTION     0.44     1.85     8.40     0  01:53        1.85
  YS02001633           JUNCTION     0.53     2.03     8.49     0  02:23        2.02
  YS02001641           JUNCTION     0.51     2.00     8.44     0  02:23        1.95
  YS02001644           JUNCTION     0.51     1.92     8.35     0  01:57        1.92
  YS02001647           JUNCTION     0.30     1.82     8.43     0  01:57        1.74
  YS02001649           JUNCTION     0.34     2.04     8.43     0  01:57        1.95
  YS02001652           JUNCTION     0.24     1.91     8.50     0  01:57        1.79
  YS02001655           JUNCTION     0.18     2.15     9.00     0  02:27        1.58
  YS02001658           JUNCTION     0.13     1.76     8.90     0  01:57        1.34
  YS02001661           JUNCTION     0.15     1.45     8.86     0  01:58        1.12
  YS02001664           JUNCTION     0.05     0.60     8.52     0  01:58        0.56
  YS02001745           JUNCTION     0.07     0.83     8.34     0  02:01        0.81
  YS02001748           JUNCTION     0.12     1.81     8.88     0  01:58        1.24
  YS02001751           JUNCTION     0.16     1.79     8.67     0  01:58        1.42
  YS02001754           JUNCTION     0.21     1.83     8.44     0  01:58        1.68
  YS02001757           JUNCTION     0.38     2.02     8.28     0  01:58        2.01
  YS02001759           JUNCTION     0.31     2.01     8.38     0  02:00        2.01
  YS02001762           JUNCTION     0.30     1.99     8.39     0  02:00        1.99
  YS02001765           JUNCTION     0.28     1.96     8.41     0  02:00        1.95
  YS02001767           JUNCTION     0.28     1.93     8.42     0  02:00        1.92
  YS02001770           JUNCTION     0.29     1.95     8.44     0  02:00        1.95
  YS02001774           JUNCTION     0.35     2.00     8.42     0  02:00        1.99
  YS02001779           JUNCTION     0.20     1.68     8.37     0  01:56        1.68
  YS02001783           JUNCTION     0.23     1.34     7.48     0  01:56        1.24
  YS02001784           JUNCTION     0.24     1.19     7.26     0  01:56        1.12
  YS02001786           JUNCTION     0.21     0.94     6.97     0  01:56        0.88
  YS02001788           JUNCTION     0.15     0.62     6.60     0  02:00        0.62
  YS02001790           JUNCTION     0.17     0.73     6.37     0  02:00        0.72
  YS02001791           JUNCTION     0.11     0.44     5.91     0  02:03        0.43
  YS02001793           JUNCTION     0.06     0.29     5.12     0  02:10        0.29
  YS02001882           JUNCTION     0.29     1.68     8.40     0  01:56        1.65
  YS02001884           JUNCTION     0.38     1.77     8.39     0  01:56        1.76
  YS02001887           JUNCTION     0.46     1.83     8.37     0  02:01        1.83
  YS02001890           JUNCTION     0.49     1.81     8.32     0  01:56        1.81
  YS02001895           JUNCTION     0.26     1.58     8.32     0  01:56        1.56
  YS02001898           JUNCTION     0.27     1.58     8.31     0  01:56        1.56
  YS02001901           JUNCTION     0.39     1.68     8.29     0  01:56        1.68
  YS02001904           JUNCTION     0.37     1.64     8.27     0  01:56        1.64
  YS02001907           JUNCTION     0.69     1.96     8.25     0  01:56        1.96
  YS02001910           JUNCTION     0.49     1.96     8.47     0  01:57        1.90
  YS02001915           JUNCTION     0.29     1.90     8.62     0  01:57        1.81
  YS02001918           JUNCTION     0.16     1.81     8.88     0  01:57        1.46
  YS02001920           JUNCTION     0.24     2.12     9.13     0  01:57        1.53
  YS02001923           JUNCTION     0.12     2.03     9.29     0  01:57        1.29
  YS02001926           JUNCTION     0.15     1.90     9.35     0  01:57        1.90
  YS02001929           JUNCTION     0.08     1.78     9.47     0  01:57        0.88
  YS02006553           JUNCTION     0.69     1.99     8.27     0  01:56        1.97
  YS02006556           JUNCTION     0.67     1.98     8.29     0  02:00        1.96
  YS02006558           JUNCTION     0.71     2.03     8.29     0  02:00        2.01
  YS02006561           JUNCTION     0.14     0.99     7.65     0  01:56        0.91
  YS02163301           JUNCTION     0.47     1.93     8.45     0  02:23        1.92
  YS02163601           JUNCTION     0.57     2.08     8.48     0  02:23        2.03
  YS02164001           JUNCTION     0.50     2.03     8.48     0  02:23        1.94
  CC-1                 OUTFALL      0.00     0.00     0.00     0  00:00        0.00
  CC-2                 OUTFALL      0.00     0.00     0.00     0  00:00        0.00
  JK-1                 OUTFALL      0.00     0.00     0.00     0  00:00        0.00
  JK-2                 OUTFALL      0.00     0.00     0.00     0  00:00        0.00
  WSC                  OUTFALL      0.19     0.30     0.97     0  02:39        0.30
  CC-storage           STORAGE      1.00     1.75     7.25     0  02:30        1.75
  JK-storage           STORAGE      3.27     4.24     5.04     0  02:07        4.19
  
  
  *******************
  Node Inflow Summary
  *******************
  
  -------------------------------------------------------------------------------------------------
                                  Maximum  Maximum                  Lateral       Total        Flow
                                  Lateral    Total  Time of Max      Inflow      Inflow     Balance
                                   Inflow   Inflow   Occurrence      Volume      Volume       Error
  Node                 Type           LPS      LPS  days hr:min    10^6 ltr    10^6 ltr     Percent
  -------------------------------------------------------------------------------------------------
  WS02003060           JUNCTION     16.53   554.71     0  02:38       0.476        5.47       0.039
  WS02003066           JUNCTION      0.00   537.89     0  02:38           0           5       0.028
  WS02003067           JUNCTION      0.00   537.83     0  02:37           0           5       0.084
  WS02003069           JUNCTION      0.32   554.58     0  02:38     0.00922        5.48       0.069
  WS02003072           JUNCTION      0.00   554.06     0  03:09           0        5.47       0.121
  WS02003073           JUNCTION      1.82   555.56     0  03:09      0.0524        5.52       0.092
  WS02004401           JUNCTION      0.00   539.51     0  02:23           0        5.11       0.243
  WS02004402           JUNCTION      0.00   539.46     0  03:07           0         5.1       0.244
  WS02004403           JUNCTION      0.00   541.13     0  03:08           0        5.09       0.233
  WS02004404           JUNCTION      0.16   560.01     0  02:34     0.00467        5.08       0.193
  WS02004405           JUNCTION      0.04   606.11     0  02:35      0.0011        5.07       0.199
  WS02004406           JUNCTION      0.00   546.17     0  02:26           0        5.06       0.468
  WS02004407           JUNCTION      0.00   539.81     0  02:36           0        5.04       0.049
  WS02004409           JUNCTION      0.00   539.36     0  02:36           0        5.03       0.077
  WS02004410           JUNCTION      0.00   538.97     0  02:36           0        5.03       0.097
  WS02004411           JUNCTION      0.00   538.50     0  02:37           0        5.03       0.115
  WS02004412           JUNCTION      0.00   538.43     0  02:37           0        5.02       0.151
  WS02004413           JUNCTION      0.00   538.32     0  02:37           0        5.01       0.265
  WS02006109           JUNCTION      1.23   572.37     0  02:44      0.0354        5.18       0.277
  WS02006110           JUNCTION      0.00   576.22     0  02:44           0        5.17       0.237
  WS02006111           JUNCTION      0.00   564.16     0  02:45           0        5.15       0.044
  WS02006112           JUNCTION      0.00   543.84     0  02:49           0        5.15       0.403
  WS02006113           JUNCTION      0.00   573.55     0  02:44           0        5.15       0.094
  WS02006115           JUNCTION      0.00   562.71     0  02:44           0        5.13       0.182
  WS02006116           JUNCTION      0.00   542.52     0  02:23           0        5.12       0.101
  WS02006228           JUNCTION      0.00   563.99     0  02:44           0        5.15       0.131
  WS02006229           JUNCTION      0.00   563.24     0  02:44           0        5.16       0.148
  WS02006230           JUNCTION     10.28   594.81     0  03:06       0.296        5.16       0.101
  WS02006231           JUNCTION      0.00   601.85     0  02:21           0        4.87       0.069
  WS02006232           JUNCTION      0.00   598.56     0  02:21           0        4.89       0.292
  WS02006234           JUNCTION      0.00   593.93     0  02:21           0        4.88      -0.115
  WS02006235           JUNCTION      0.00   563.74     0  02:21           0        4.94       0.202
  WS02006238           JUNCTION      0.00   425.98     0  02:50           0        3.83      -0.045
  WS02006239           JUNCTION      0.00   424.30     0  02:35           0         3.8      -0.028
  WS02006240           JUNCTION      0.00   420.42     0  02:50           0        3.77       0.008
  WS02006242           JUNCTION      0.00   420.56     0  02:50           0        3.76      -0.045
  WS02006243           JUNCTION      0.00   421.43     0  02:50           0        3.75       0.125
  WS02006245           JUNCTION      0.00   421.61     0  02:50           0        3.76       0.335
  WS02006247           JUNCTION      0.00   421.23     0  02:35           0        3.76       0.040
  WS02006248           JUNCTION      0.00   421.87     0  02:35           0        3.77       0.095
  WS02006249           JUNCTION      0.00   459.02     0  00:00           0        4.05       0.298
  WS02006251           JUNCTION      0.08   407.08     0  01:54     0.00222        4.05      -0.033
  WS02006252           JUNCTION      0.00   400.00     0  00:00           0        4.05      -0.022
  WS02006256           JUNCTION      0.00   300.00     0  00:00           0        1.67      -0.703
  WSF200               JUNCTION      0.00   537.97     0  02:38           0        4.99       0.008
  YS02001580           JUNCTION      0.00   127.18     0  01:53           0     0.00429      -1.632
  YS02001583           JUNCTION      0.00   164.49     0  01:53           0      0.0152      -5.465
  YS02001586           JUNCTION    749.82   749.85     0  02:04        1.76        1.77       0.068
  YS02001590           JUNCTION      0.00   320.27     0  02:21           0        1.36      -0.018
  YS02001593           JUNCTION      0.00   319.65     0  02:21           0        1.36       0.000
  YS02001596           JUNCTION      0.00   318.16     0  02:22           0        1.36      -0.017
  YS02001600           JUNCTION      0.00   318.17     0  02:21           0        1.36       0.013
  YS02001601           JUNCTION   1352.38  1669.87     0  02:03        2.42        3.79       0.027
  YS02001602           JUNCTION      0.00   519.23     0  01:52           0         2.3       0.020
  YS02001605           JUNCTION      0.00   519.34     0  01:52           0        2.17       0.025
  YS02001607           JUNCTION      0.00   519.49     0  01:52           0        2.17       0.088
  YS02001610           JUNCTION      0.00   734.66     0  02:04           0        2.42       0.093
  YS02001613           JUNCTION      0.00   528.06     0  01:52           0        1.92       0.084
  YS02001616           JUNCTION      0.00   528.18     0  01:52           0        1.92       0.018
  YS02001619           JUNCTION   1333.55  1333.55     0  02:04        2.82        4.49      -0.002
  YS02001622           JUNCTION      0.00   950.91     0  02:02           0        4.24      -0.003
  YS02001625           JUNCTION      0.00  1352.92     0  02:04           0        4.47       0.202
  YS02001629           JUNCTION      0.00   924.00     0  01:53           0        3.43       0.011
  YS02001633           JUNCTION   1016.19  1360.09     0  01:55        1.77        4.93       0.067
  YS02001641           JUNCTION      0.00  1357.07     0  01:55           0        4.66       0.062
  YS02001644           JUNCTION    906.52  1755.27     0  01:55        1.53        6.19       0.052
  YS02001647           JUNCTION      0.00  1755.40     0  01:55           0        5.68       0.009
  YS02001649           JUNCTION      0.00  1955.00     0  01:54           0        7.09       0.002
  YS02001652           JUNCTION      0.00   917.59     0  02:02           0        1.41      -0.091
  YS02001655           JUNCTION      0.15   917.56     0  02:02     0.00443         1.4      -0.012
  YS02001658           JUNCTION      0.00   916.92     0  02:02           0         1.4       0.004
  YS02001661           JUNCTION      0.00   914.51     0  02:02           0         1.4       0.016
  YS02001664           JUNCTION    890.37   890.37     0  02:02         1.4         1.4      -0.011
  YS02001745           JUNCTION    569.62   569.62     0  02:02       0.847       0.848       0.176
  YS02001748           JUNCTION      0.04   587.23     0  01:58      0.0013       0.848      -0.271
  YS02001751           JUNCTION      0.01   579.86     0  02:02    0.000317       0.856       0.091
  YS02001754           JUNCTION      0.26   580.27     0  02:02     0.00749        0.87      -0.154
  YS02001757           JUNCTION      0.00  3243.96     0  02:00           0        10.7       0.014
  YS02001759           JUNCTION    790.37  1351.68     0  02:01        1.17        2.73      -0.007
  YS02001762           JUNCTION      0.00   697.58     0  01:58           0        1.56       0.002
  YS02001765           JUNCTION      0.00   697.96     0  01:58           0        1.56       0.006
  YS02001767           JUNCTION      0.54   700.37     0  01:58      0.0154        1.56       0.009
  YS02001770           JUNCTION   1115.26  1115.26     0  02:02        1.78        1.83      -0.004
  YS02001774           JUNCTION      0.00   599.68     0  02:02           0         0.3       0.364
  YS02001779           JUNCTION      0.01   600.09     0  02:02    0.000144       0.255      -0.143
  YS02001783           JUNCTION      0.00  1165.73     0  02:00           0        4.14       0.006
  YS02001784           JUNCTION      1.06  1166.35     0  02:00      0.0305        4.17       0.012
  YS02001786           JUNCTION      0.06  1166.71     0  02:00     0.00162        4.17       0.018
  YS02001788           JUNCTION      0.07  1168.29     0  02:00     0.00204        4.17       0.007
  YS02001790           JUNCTION      0.15  1180.44     0  02:01     0.00446        4.17       0.022
  YS02001791           JUNCTION      0.00  1295.77     0  01:59           0        4.17      -0.025
  YS02001793           JUNCTION      0.00  1253.08     0  02:01           0        4.17       0.003
  YS02001882           JUNCTION      0.00    55.95     0  01:54           0      0.0126       5.754
  YS02001884           JUNCTION      0.00    76.20     0  01:54           0      0.0488       5.632
  YS02001887           JUNCTION    854.65   857.19     0  02:01        1.22        1.26       0.358
  YS02001890           JUNCTION      0.00   857.79     0  02:01           0        1.22       0.431
  YS02001895           JUNCTION      0.00   518.32     0  02:03           0         1.1       0.150
  YS02001898           JUNCTION      0.00   517.65     0  02:03           0         1.1       0.027
  YS02001901           JUNCTION      0.00   517.35     0  02:05           0         1.1       0.301
  YS02001904           JUNCTION      0.00   517.50     0  02:04           0         1.1       0.269
  YS02001907           JUNCTION      0.00  1994.25     0  02:02           0        3.77       0.489
  YS02001910           JUNCTION      0.00  1477.92     0  02:02           0        2.67       0.273
  YS02001915           JUNCTION    982.13  1477.88     0  02:02         1.7        2.71       0.056
  YS02001918           JUNCTION      0.00   496.03     0  02:02           0        1.04       0.019
  YS02001920           JUNCTION      2.87   495.90     0  02:02      0.0827        1.03       0.078
  YS02001923           JUNCTION      0.04   491.25     0  02:02     0.00109       0.928      -0.054
  YS02001926           JUNCTION      0.05   567.19     0  01:56      0.0015       0.907      -0.089
  YS02001929           JUNCTION    477.00   477.00     0  02:03       0.893       0.895      -0.060
  YS02006553           JUNCTION      0.00   807.24     0  02:21           0         2.4       0.505
  YS02006556           JUNCTION      0.00   807.41     0  02:21           0        2.41       0.344
  YS02006558           JUNCTION   1144.75  1170.68     0  01:56        1.79        4.17       0.083
  YS02006561           JUNCTION      0.00  1171.25     0  01:56           0        4.14      -0.004
  YS02163301           JUNCTION      0.00   916.31     0  01:55           0        3.42       0.040
  YS02163601           JUNCTION      0.11  1359.49     0  01:55     0.00317        4.66       0.106
  YS02164001           JUNCTION      0.00  1359.15     0  01:55           0        4.66       0.048
  CC-1                 OUTFALL       0.00   683.00     0  00:00           0        3.73       0.000
  CC-2                 OUTFALL       0.00   683.00     0  00:00           0        2.92       0.000
  JK-1                 OUTFALL       0.00  1000.00     0  00:00           0        1.68       0.000
  JK-2                 OUTFALL       0.00  1000.00     0  00:00           0        0.84       0.000
  WSC                  OUTFALL       0.00   555.56     0  02:39           0        5.51       0.000
  CC-storage           STORAGE       0.00  3243.90     0  02:00           0        12.9      -0.064
  JK-storage           STORAGE       0.00  1253.01     0  02:01           0        4.32      -0.032
  
  
  **********************
  Node Surcharge Summary
  **********************
  
  Surcharging occurs when water rises above the top of the highest conduit.
  ---------------------------------------------------------------------
                                               Max. Height   Min. Depth
                                   Hours       Above Crown    Below Rim
  Node                 Type      Surcharged         Meters       Meters
  ---------------------------------------------------------------------
  WS02004404           JUNCTION        0.02          0.048        2.732
  WS02006109           JUNCTION        2.08          0.311        1.509
  WS02006110           JUNCTION        0.91          0.257        1.593
  WS02006112           JUNCTION        1.17          0.091        1.589
  WS02006228           JUNCTION        2.07          0.446        1.754
  WS02006229           JUNCTION        2.08          0.515        1.935
  WS02006230           JUNCTION        0.93          0.657        0.913
  WS02006231           JUNCTION        1.10          0.558        0.972
  WS02006232           JUNCTION        2.14          0.734        0.746
  WS02006234           JUNCTION        1.54          0.847        0.393
  WS02006235           JUNCTION        2.06          1.097        0.193
  WS02006238           JUNCTION        2.11          1.155        0.275
  WS02006239           JUNCTION        2.07          1.093        0.197
  WS02006240           JUNCTION        2.08          1.027        0.363
  WS02006242           JUNCTION        2.11          0.820        0.000
  WS02006243           JUNCTION        2.03          0.770        0.000
  WS02006245           JUNCTION        2.02          0.587        0.263
  WS02006247           JUNCTION        2.03          0.533        0.227
  WS02006248           JUNCTION        2.02          0.380        0.000
  WS02006249           JUNCTION        2.02          0.390        0.000
  WS02006251           JUNCTION        1.19          0.576        0.604
  WS02006252           JUNCTION        2.20          1.100        0.000
  WS02006256           JUNCTION        5.06          2.050        0.000
  YS02001580           JUNCTION        0.66          0.450        0.000
  YS02001583           JUNCTION        0.66          0.336        0.164
  YS02001586           JUNCTION        0.80          0.510        0.000
  YS02001590           JUNCTION        0.88          0.732        0.018
  YS02001593           JUNCTION        0.88          0.679        0.161
  YS02001596           JUNCTION        1.00          0.931        0.139
  YS02001600           JUNCTION        1.16          1.185        0.005
  YS02001601           JUNCTION        1.48          1.440        0.000
  YS02001602           JUNCTION        1.39          1.270        0.000
  YS02001605           JUNCTION        1.34          1.180        0.000
  YS02001607           JUNCTION        0.87          0.680        0.000
  YS02001610           JUNCTION        0.90          0.680        0.000
  YS02001613           JUNCTION        0.87          0.664        0.036
  YS02001616           JUNCTION        0.83          0.610        0.000
  YS02001619           JUNCTION        0.81          0.610        0.000
  YS02001622           JUNCTION        0.81          0.620        0.000
  YS02001625           JUNCTION        1.00          0.780        0.000
  YS02001629           JUNCTION        0.77          0.470        0.000
  YS02001633           JUNCTION        1.03          1.012        0.048
  YS02001641           JUNCTION        0.98          1.001        0.099
  YS02001644           JUNCTION        0.95          0.920        0.000
  YS02001647           JUNCTION        0.74          0.823        0.077
  YS02001649           JUNCTION        0.88          1.037        0.013
  YS02001652           JUNCTION        0.67          0.877        0.253
  YS02001655           JUNCTION        0.50          1.153        0.047
  YS02001658           JUNCTION        0.26          0.759        0.541
  YS02001661           JUNCTION        0.04          0.382        1.008
  YS02001748           JUNCTION        0.21          0.727        0.463
  YS02001751           JUNCTION        0.36          0.787        0.413
  YS02001754           JUNCTION        0.57          0.778        0.372
  YS02001757           JUNCTION        0.95          1.018        0.192
  YS02001759           JUNCTION        0.85          1.013        0.197
  YS02001762           JUNCTION        0.82          0.993        0.157
  YS02001765           JUNCTION        0.77          0.957        0.143
  YS02001767           JUNCTION        0.74          0.935        0.095
  YS02001770           JUNCTION        0.71          0.920        0.000
  YS02001774           JUNCTION        0.80          0.997        0.053
  YS02001779           JUNCTION        0.57          0.680        0.000
  YS02001783           JUNCTION        0.57          0.537        1.063
  YS02001784           JUNCTION        0.54          0.390        1.100
  YS02001786           JUNCTION        0.44          0.135        1.295
  YS02001882           JUNCTION        0.51          0.681        0.149
  YS02001884           JUNCTION        0.52          0.709        0.161
  YS02001887           JUNCTION        0.56          0.785        0.165
  YS02001890           JUNCTION        0.57          0.760        0.000
  YS02001895           JUNCTION        0.50          0.575        0.175
  YS02001898           JUNCTION        0.50          0.547        0.193
  YS02001901           JUNCTION        0.54          0.679        0.191
  YS02001904           JUNCTION        0.54          0.640        0.210
  YS02001907           JUNCTION        0.79          0.950        0.000
  YS02001910           JUNCTION        0.60          0.959        0.141
  YS02001915           JUNCTION        0.51          0.904        0.096
  YS02001918           JUNCTION        0.42          0.810        0.000
  YS02001920           JUNCTION        0.44          1.123        0.017
  YS02001923           JUNCTION        0.12          0.820        0.000
  YS02001926           JUNCTION        0.15          0.900        0.000
  YS02001929           JUNCTION        0.01          0.780        0.000
  YS02006553           JUNCTION        0.81          0.986        0.204
  YS02006556           JUNCTION        0.69          0.935        0.415
  YS02006558           JUNCTION        0.69          0.927        0.473
  YS02006561           JUNCTION        0.39          0.195        0.955
  YS02163301           JUNCTION        1.01          0.928        0.102
  YS02163601           JUNCTION        1.06          1.080        0.000
  YS02164001           JUNCTION        0.98          1.026        0.074
  
  
  *********************
  Node Flooding Summary
  *********************
  
  Flooding refers to all water that overflows a node, whether it ponds or not.
  --------------------------------------------------------------------------
                                                             Total   Maximum
                                 Maximum   Time of Max       Flood    Ponded
                        Hours       Rate    Occurrence      Volume     Depth
  Node                 Flooded       LPS   days hr:min    10^6 ltr    Meters
  --------------------------------------------------------------------------
  WS02006242              0.01      5.48      0  02:10       0.000     0.000
  WS02006243              0.01     47.24      0  01:50       0.000     0.000
  WS02006248              0.01     30.28      0  02:10       0.001     0.000
  WS02006249              1.15    118.41      0  01:54       0.276     0.000
  WS02006252              0.01    245.63      0  00:00       0.000     0.000
  WS02006256              1.54    293.19      0  00:00       0.531     0.000
  YS02001580              0.01    104.75      0  01:53       0.000     0.000
  YS02001586              0.52    432.21      0  02:04       0.393     0.000
  YS02001601              0.72   1272.00      0  02:03       1.483     0.000
  YS02001602              0.63     62.01      0  02:25       0.127     0.000
  YS02001605              0.01      4.76      0  01:53       0.000     0.000
  YS02001607              0.01      0.18      0  02:21       0.000     0.000
  YS02001610              0.55    734.50      0  02:03       0.740     0.000
  YS02001616              0.01      7.83      0  01:52       0.000     0.000
  YS02001619              0.01     51.84      0  01:52       0.000     0.000
  YS02001622              0.01     93.08      0  01:52       0.000     0.000
  YS02001625              0.52   1352.77      0  02:04       1.299     0.000
  YS02001629              0.13    174.72      0  02:00       0.045     0.000
  YS02001644              0.22   1103.48      0  02:02       0.500     0.000
  YS02001770              0.01      1.52      0  02:01       0.000     0.000
  YS02001779              0.20    599.61      0  02:02       0.236     0.000
  YS02001890              0.18    343.49      0  02:01       0.112     0.000
  YS02001907              0.37   1958.66      0  02:02       1.365     0.000
  YS02001918              0.01    171.26      0  01:57       0.002     0.000
  YS02001923              0.01     87.06      0  01:57       0.000     0.000
  YS02001926              0.01    313.97      0  01:57       0.001     0.000
  YS02001929              0.01    183.52      0  01:57       0.001     0.000
  YS02163601              0.01      4.15      0  02:23       0.000     0.000
  
  
  **********************
  Storage Volume Summary
  **********************
  
  ------------------------------------------------------------------------------------------------
                         Average    Avg   Evap  Exfil     Maximum    Max    Time of Max    Maximum
                          Volume   Pcnt   Pcnt   Pcnt      Volume   Pcnt     Occurrence    Outflow
  Storage Unit           1000 m³   Full   Loss   Loss     1000 m³   Full    days hr:min        LPS
  ------------------------------------------------------------------------------------------------
  CC-storage               2.777   43.3    0.0    0.0       4.872   76.0       0  02:30    1783.53
  JK-storage               0.164   56.3    0.0    0.0       0.213   73.1       0  02:07    2300.00
  
  
  ***********************
  Outfall Loading Summary
  ***********************
  
  -----------------------------------------------------------
                         Flow       Avg       Max       Total
                         Freq      Flow      Flow      Volume
  Outfall Node           Pcnt       LPS       LPS    10^6 ltr
  -----------------------------------------------------------
  CC-1                  20.89    683.00    683.00       3.732
  CC-2                  16.96    683.00    683.00       2.921
  JK-1                   6.68   1000.00   1000.00       1.680
  JK-2                   3.85   1000.00   1000.00       0.840
  WSC                   99.96    266.33    555.56       5.513
  -----------------------------------------------------------
  System                29.67   3632.33   3366.23      14.687
  
  
  ********************
  Link Flow Summary
  ********************
  
  -----------------------------------------------------------------------------
                                 Maximum  Time of Max   Maximum    Max/    Max/
                                  |Flow|   Occurrence   |Veloc|    Full    Full
  Link                 Type          LPS  days hr:min     m/sec    Flow   Depth
  -----------------------------------------------------------------------------
  1                    CONDUIT    555.56     0  02:39      2.83    0.19    0.30
  WS02003060WS02003069 CONDUIT    554.26     0  02:38      1.64    0.22    0.34
  WS02003066WSF200     CONDUIT    537.97     0  02:38      2.85    0.09    0.22
  WS02003067WS02003066 CONDUIT    537.89     0  02:38      1.21    0.17    0.42
  WS02003069WS02003072 CONDUIT    554.06     0  03:09      1.37    0.27    0.39
  WS02003072WS02003073 CONDUIT    553.74     0  03:09      1.44    1.20    0.37
  WS02004401WS02004402 CONDUIT    539.46     0  03:07      0.98    0.65    0.89
  WS02004402WS02004403 CONDUIT    541.13     0  03:08      0.97    0.78    0.91
  WS02004403WS02004404 CONDUIT    559.85     0  02:34      0.92    0.40    0.96
  WS02004404WS02004405 CONDUIT    606.08     0  02:35      1.08    5.94    0.98
  WS02004405WS02004406 CONDUIT    546.17     0  02:26      0.99    1.08    0.96
  WS02004406WS02004407 CONDUIT    539.81     0  02:36      1.04    0.24    0.63
  WS02004407WS02004409 CONDUIT    539.36     0  02:36      1.57    0.19    0.48
  WS02004409WS02004410 CONDUIT    538.97     0  02:36      1.05    0.70    0.68
  WS02004410WS02004411 CONDUIT    538.50     0  02:37      0.97    0.74    0.69
  WS02004411WS02004412 CONDUIT    538.43     0  02:37      0.92    0.76    0.69
  WS02004412WS02004413 CONDUIT    538.32     0  02:37      0.82    0.36    0.78
  WS02004413WS02003067 CONDUIT    537.83     0  02:37      1.11    0.23    0.59
  WS02006109WS02006110 CONDUIT    576.22     0  02:44      1.15    1.11    1.00
  WS02006110WS02006113 CONDUIT    573.55     0  02:44      1.38    0.52    0.79
  WS02006111WS02006112 CONDUIT    543.84     0  02:49      1.81    0.26    0.67
  WS02006112WS02006115 CONDUIT    562.71     0  02:44      0.86    0.33    0.88
  WS02006113WS02006111 CONDUIT    564.16     0  02:45      2.47    0.68    0.46
  WS02006115WS02006116 CONDUIT    542.52     0  02:23      1.06    0.70    0.78
  WS02006116WS02004401 CONDUIT    539.51     0  02:23      0.98    0.74    0.86
  WS02006228WS02006109 CONDUIT    571.14     0  02:44      1.14    2.50    1.00
  WS02006229WS02006228 CONDUIT    563.99     0  02:44      1.14    1.87    1.00
  WS02006230WS02006229 CONDUIT    563.24     0  02:44      1.46   12.53    1.00
  WS02006231WS02006230 CONDUIT    584.53     0  03:06      1.59    8.87    1.00
  WS02006232WS02006231 CONDUIT    601.85     0  02:21      1.56    1.26    1.00
  WS02006234WS02006232 CONDUIT    598.56     0  02:21      1.56    1.21    1.00
  WS02006235WS02006234 CONDUIT    593.93     0  02:21      1.55    6.27    1.00
  WS02006238WS02006235 CONDUIT    425.93     0  02:50      1.48    0.95    1.00
  WS02006239WS02006238 CONDUIT    425.98     0  02:50      1.11    1.36    1.00
  WS02006240WS02006239 CONDUIT    424.30     0  02:35      1.24    1.34    1.00
  WS02006242WS02006240 CONDUIT    420.42     0  02:50      1.13    1.67    1.00
  WS02006243WS02006242 CONDUIT    420.56     0  02:50      1.40    0.90    1.00
  WS02006245WS02006243 CONDUIT    421.43     0  02:50      1.45    1.25    1.00
  WS02006247WS02006245 CONDUIT    421.61     0  02:50      1.43    3.34    1.00
  WS02006248WS02006247 CONDUIT    421.23     0  02:35      1.44    0.92    1.00
  WS02006249WS02006248 CONDUIT    421.87     0  02:35      1.40    2.31    1.00
  WS02006251WS02006249 CONDUIT    459.02     0  00:00      1.99    1.32    1.00
  WS02006252WS02006251 CONDUIT    407.00     0  01:54     24.61    1.49    1.00
  WS02006256WS02006235 CONDUIT    288.91     0  00:00      4.23    3.06    1.00
  WSF200WS02003060     CONDUIT    538.18     0  02:38      2.06    0.12    0.28
  YS02001580YS02001583 CONDUIT    127.18     0  01:53      0.67    0.49    1.00
  YS02001583YS02001586 CONDUIT    156.11     0  01:53      0.68    0.24    1.00
  YS02001586YS02001590 CONDUIT    320.27     0  02:21      1.25    0.56    1.00
  YS02001590YS02001593 CONDUIT    319.65     0  02:21      1.13    2.01    1.00
  YS02001593YS02001596 CONDUIT    318.16     0  02:22      1.74    0.50    1.00
  YS02001596YS02001600 CONDUIT    318.17     0  02:21      1.24    0.62    1.00
  YS02001600YS02001601 CONDUIT    318.30     0  02:21      1.13    0.55    1.00
  YS02001601YS02001602 CONDUIT    519.23     0  01:52      1.84    1.88    1.00
  YS02001602YS02001605 CONDUIT    519.34     0  01:52      1.84   10.99    1.00
  YS02001605YS02001607 CONDUIT    519.49     0  01:52      1.84    2.85    1.00
  YS02001607YS02001610 CONDUIT    523.10     0  01:52      0.67    0.50    1.00
  YS02001610YS02001613 CONDUIT    528.06     0  01:52      0.67    0.61    1.00
  YS02001613YS02001616 CONDUIT    528.18     0  01:52      0.68    0.45    1.00
  YS02001616YS02001619 CONDUIT    494.92     0  01:53      0.67    0.86    1.00
  YS02001619YS02001622 CONDUIT    950.91     0  02:02      1.21    1.40    1.00
  YS02001622YS02001625 CONDUIT    951.66     0  02:01      1.21    0.51    1.00
  YS02001625YS02001629 CONDUIT    924.00     0  01:53      1.19    0.44    1.00
  YS02001629YS02163301 CONDUIT    916.31     0  01:55      1.17    1.13    1.00
  YS02001633YS02163601 CONDUIT   1359.38     0  01:55      1.73    1.43    1.00
  YS02001641YS02001644 CONDUIT   1357.84     0  01:55      1.73    4.39    1.00
  YS02001644YS02001647 CONDUIT   1755.40     0  01:55      2.24    1.03    1.00
  YS02001647YS02001649 CONDUIT   1757.50     0  01:55      2.33    0.93    1.00
  YS02001649YS02001757 CONDUIT   1921.38     0  01:55      2.46    1.17    1.00
  YS02001652YS02001649 CONDUIT    917.80     0  02:02      1.17    0.45    1.00
  YS02001655YS02001652 CONDUIT    917.59     0  02:02      1.34    0.45    1.00
  YS02001658YS02001655 CONDUIT    917.41     0  02:02      1.90    0.39    1.00
  YS02001661YS02001658 CONDUIT    916.92     0  02:02      2.29    0.36    1.00
  YS02001664YS02001661 CONDUIT    914.51     0  02:02      2.26    0.29    0.79
  YS02001745YS02001748 CONDUIT    587.19     0  01:58      2.15    0.23    0.91
  YS02001748YS02001751 CONDUIT    579.85     0  02:02      1.68    0.29    1.00
  YS02001751YS02001754 CONDUIT    580.01     0  02:02      1.46    0.28    1.00
  YS02001754YS02001757 CONDUIT    580.98     0  02:01      0.74    0.23    1.00
  YS02001757CaochengTiaoxuchi CONDUIT   3243.90     0  02:00      4.13    1.40    1.00
  YS02001759YS02001757 CONDUIT   1352.10     0  02:01      1.72    0.96    1.00
  YS02001762YS02001759 CONDUIT    699.28     0  01:58      0.89    0.81    1.00
  YS02001765YS02001762 CONDUIT    697.58     0  01:58      0.89    0.65    1.00
  YS02001767YS02001765 CONDUIT    697.96     0  01:58      0.89    0.88    1.00
  YS02001770YS02001767 CONDUIT    699.83     0  01:58      0.89    2.77    1.00
  YS02001774YS02001770 CONDUIT    599.68     0  02:02      0.76    0.38    1.00
  YS02001779YS02001774 CONDUIT    600.08     0  02:02      0.76    0.30    1.00
  YS02001783YS02001784 CONDUIT   1165.29     0  02:00      2.32    1.61    1.00
  YS02001784YS02001785 CONDUIT   1166.65     0  02:00      2.32    2.71    1.00
  YS02001786YS02001788 CONDUIT   1168.22     0  02:00      2.48    2.25    0.89
  YS02001788YS02001790 CONDUIT   1180.28     0  02:01      2.72    0.87    0.85
  YS02001790YS02001791 CONDUIT   1295.77     0  01:59      3.43    1.41    0.71
  YS02001791YS02001793 CONDUIT   1253.08     0  02:01      6.79    0.54    0.44
  YS02001793JiankangQianchi CONDUIT   1253.01     0  02:01      2.51    0.10    0.65
  YS02001882YS02001884 CONDUIT     55.95     0  01:54      0.13    0.06    1.00
  YS02001884YS02001887 CONDUIT     76.20     0  01:54      0.10    0.10    1.00
  YS02001887YS02001890 CONDUIT    857.79     0  02:01      1.09    1.47    1.00
  YS02001890YS02001895 CONDUIT    518.32     0  02:03      0.66    0.24    1.00
  YS02001895YS02001898 CONDUIT    517.65     0  02:03      0.66    0.90    1.00
  YS02001898YS02001901 CONDUIT    517.35     0  02:05      0.66    0.33    1.00
  YS02001901YS02001904 CONDUIT    517.50     0  02:04      0.66    0.80    1.00
  YS02001904YS02001907 CONDUIT    518.72     0  02:04      0.66    0.18    1.00
  YS02001907YS02006553 CONDUIT    807.24     0  02:21      0.90    0.95    1.00
  YS02001910YS02001907 CONDUIT   1478.03     0  02:02      1.88    0.83    1.00
  YS02001915YS02001910 CONDUIT   1477.92     0  02:02      1.88    0.73    1.00
  YS02001918YS02001915 CONDUIT    496.17     0  02:02      0.63    0.27    1.00
  YS02001920YS02001918 CONDUIT    496.03     0  02:02      0.64    0.48    1.00
  YS02001923YS02001920 CONDUIT    493.03     0  02:02      0.69    0.22    1.00
  YS02001926YS02001923 CONDUIT    491.21     0  02:02      0.95    0.70    1.00
  YS02001929YS02001926 CONDUIT    489.37     0  02:02      1.12    0.23    1.00
  YS02006553YS02006556 CONDUIT    807.41     0  02:21      1.03    0.69    1.00
  YS02006556YS02006558 CONDUIT    808.77     0  02:21      1.03    0.64    1.00
  YS02006558YS02006561 CONDUIT   1171.25     0  01:56      4.14    2.59    1.00
  YS02006561YS02001783 CONDUIT   1165.73     0  02:00      2.32    0.60    1.00
  YS02163301YS02001633 CONDUIT    916.82     0  01:55      1.17    0.86    1.00
  YS02163601YS02164001 CONDUIT   1359.15     0  01:55      1.73    1.20    1.00
  YS02164001YS02001641 CONDUIT   1357.07     0  01:55      1.73    1.85    1.00
  CC-R1                PUMP       683.00     0  00:00              1.00
  CC-R2                PUMP       683.00     0  00:00              1.00
  CC-S1                PUMP       200.00     0  00:00              1.00
  CC-S2                PUMP       200.00     0  00:00              1.00
  JK-R1                PUMP      1000.00     0  00:00              1.00
  JK-R2                PUMP      1000.00     0  00:00              1.00
  JK-S                 PUMP       300.00     0  00:00              1.00
  
  
  ***************************
  Flow Classification Summary
  ***************************
  
  -------------------------------------------------------------------------------------
                      Adjusted    ---------- Fraction of Time in Flow Class ---------- 
                       /Actual         Up    Down  Sub   Sup   Up    Down  Norm  Inlet 
  Conduit               Length    Dry  Dry   Dry   Crit  Crit  Crit  Crit  Ltd   Ctrl  
  -------------------------------------------------------------------------------------
  1                       1.00   0.00  0.00  0.00  0.00  1.00  0.00  0.00  0.55  0.00
  WS02003060WS02003069    1.00   0.00  0.00  0.00  0.99  0.01  0.00  0.00  0.69  0.00
  WS02003066WSF200        1.00   0.13  0.00  0.00  0.00  0.87  0.00  0.00  0.74  0.00
  WS02003067WS02003066    1.00   0.10  0.02  0.00  0.88  0.00  0.00  0.00  0.00  0.00
  WS02003069WS02003072    1.00   0.00  0.00  0.00  0.99  0.01  0.00  0.00  0.72  0.00
  WS02003072WS02003073    1.00   0.00  0.00  0.00  0.00  0.00  0.00  1.00  0.00  0.00
  WS02004401WS02004402    1.00   0.02  0.00  0.00  0.98  0.00  0.00  0.00  0.00  0.00
  WS02004402WS02004403    1.00   0.02  0.00  0.00  0.97  0.00  0.00  0.00  0.00  0.00
  WS02004403WS02004404    1.00   0.00  0.03  0.00  0.97  0.00  0.00  0.00  0.00  0.00
  WS02004404WS02004405    1.00   0.00  0.00  0.00  1.00  0.00  0.00  0.00  0.01  0.00
  WS02004405WS02004406    1.00   0.00  0.00  0.00  1.00  0.00  0.00  0.00  0.00  0.00
  WS02004406WS02004407    1.00   0.00  0.05  0.00  0.95  0.00  0.00  0.00  0.00  0.00
  WS02004407WS02004409    1.00   0.05  0.00  0.00  0.94  0.01  0.00  0.00  0.94  0.00
  WS02004409WS02004410    1.00   0.05  0.00  0.00  0.95  0.00  0.00  0.00  0.03  0.00
  WS02004410WS02004411    1.00   0.05  0.00  0.00  0.95  0.00  0.00  0.00  0.01  0.00
  WS02004411WS02004412    1.00   0.05  0.00  0.00  0.95  0.00  0.00  0.00  0.00  0.00
  WS02004412WS02004413    1.00   0.05  0.00  0.00  0.94  0.00  0.00  0.00  0.01  0.00
  WS02004413WS02003067    1.00   0.06  0.04  0.00  0.00  0.00  0.90  0.00  0.00  0.00
  WS02006109WS02006110    1.00   0.00  0.01  0.00  0.98  0.00  0.01  0.00  0.00  0.00
  WS02006110WS02006113    1.00   0.01  0.01  0.00  0.98  0.00  0.00  0.00  0.00  0.00
  WS02006111WS02006112    1.00   0.02  0.00  0.00  0.98  0.00  0.00  0.00  0.98  0.00
  WS02006112WS02006115    1.00   0.02  0.00  0.00  0.97  0.00  0.00  0.00  0.00  0.00
  WS02006113WS02006111    1.00   0.02  0.00  0.00  0.00  0.98  0.00  0.00  0.12  0.00
  WS02006115WS02006116    1.00   0.02  0.00  0.00  0.97  0.00  0.00  0.01  0.00  0.00
  WS02006116WS02004401    1.00   0.02  0.00  0.00  0.98  0.00  0.00  0.00  0.00  0.00
  WS02006228WS02006109    1.00   0.00  0.00  0.00  1.00  0.00  0.00  0.00  0.00  0.00
  WS02006229WS02006228    1.00   0.00  0.00  0.00  0.99  0.00  0.00  0.01  0.00  0.00
  WS02006230WS02006229    1.00   0.00  0.00  0.00  0.99  0.00  0.00  0.01  0.00  0.00
  WS02006231WS02006230    1.00   0.00  0.00  0.00  0.28  0.00  0.72  0.00  0.00  0.00
  WS02006232WS02006231    1.00   0.00  0.00  0.00  0.99  0.00  0.01  0.00  0.00  0.00
  WS02006234WS02006232    1.00   0.00  0.00  0.00  1.00  0.00  0.00  0.00  0.23  0.00
  WS02006235WS02006234    1.00   0.00  0.00  0.00  0.70  0.00  0.30  0.00  0.00  0.00
  WS02006238WS02006235    1.00   0.00  0.00  0.00  1.00  0.00  0.00  0.00  0.00  0.00
  WS02006239WS02006238    1.00   0.00  0.00  0.00  1.00  0.00  0.00  0.00  0.37  0.00
  WS02006240WS02006239    1.00   0.00  0.00  0.00  0.57  0.00  0.00  0.42  0.01  0.00
  WS02006242WS02006240    1.00   0.00  0.00  0.00  0.99  0.00  0.01  0.00  0.00  0.00
  WS02006243WS02006242    1.00   0.00  0.00  0.00  0.98  0.00  0.00  0.01  0.54  0.00
  WS02006245WS02006243    1.00   0.00  0.00  0.00  0.65  0.00  0.00  0.35  0.01  0.00
  WS02006247WS02006245    1.00   0.00  0.00  0.00  0.99  0.00  0.00  0.01  0.00  0.00
  WS02006248WS02006247    1.00   0.00  0.00  0.00  0.99  0.00  0.00  0.01  0.23  0.00
  WS02006249WS02006248    1.00   0.00  0.00  0.00  0.46  0.00  0.54  0.00  0.00  0.00
  WS02006251WS02006249    1.00   0.00  0.00  0.00  1.00  0.00  0.00  0.00  0.55  0.00
  WS02006252WS02006251    1.00   0.00  0.57  0.00  0.15  0.00  0.28  0.00  0.00  0.00
  WS02006256WS02006235    1.00   0.00  0.00  0.00  0.99  0.01  0.00  0.00  0.00  0.00
  WSF200WS02003060        1.00   0.00  0.13  0.00  0.41  0.47  0.00  0.00  0.49  0.00
  YS02001580YS02001583    1.00   0.23  0.57  0.00  0.20  0.00  0.00  0.00  0.66  0.00
  YS02001583YS02001586    1.00   0.42  0.33  0.00  0.26  0.00  0.00  0.00  0.66  0.00
  YS02001586YS02001590    1.00   0.13  0.00  0.00  0.43  0.04  0.00  0.40  0.36  0.00
  YS02001590YS02001593    1.00   0.13  0.01  0.00  0.13  0.00  0.74  0.00  0.00  0.00
  YS02001593YS02001596    1.00   0.13  0.00  0.00  0.14  0.01  0.00  0.71  0.02  0.00
  YS02001596YS02001600    1.00   0.14  0.00  0.00  0.20  0.01  0.00  0.65  0.04  0.00
  YS02001600YS02001601    1.00   0.13  0.01  0.00  0.86  0.00  0.00  0.00  0.60  0.00
  YS02001601YS02001602    1.00   0.13  0.01  0.00  0.87  0.00  0.00  0.00  0.00  0.00
  YS02001602YS02001605    1.00   0.13  0.00  0.00  0.86  0.00  0.00  0.00  0.00  0.00
  YS02001605YS02001607    1.00   0.14  0.00  0.00  0.86  0.00  0.00  0.00  0.00  0.00
  YS02001607YS02001610    1.00   0.13  0.01  0.00  0.86  0.00  0.00  0.00  0.01  0.00
  YS02001610YS02001613    1.00   0.13  0.00  0.00  0.87  0.00  0.00  0.00  0.00  0.00
  YS02001613YS02001616    1.00   0.13  0.00  0.00  0.87  0.00  0.00  0.00  0.00  0.00
  YS02001616YS02001619    1.00   0.13  0.00  0.00  0.87  0.00  0.00  0.00  0.00  0.00
  YS02001619YS02001622    1.00   0.13  0.00  0.00  0.87  0.00  0.00  0.00  0.28  0.00
  YS02001622YS02001625    1.00   0.13  0.00  0.00  0.87  0.00  0.00  0.00  0.04  0.00
  YS02001625YS02001629    1.00   0.13  0.05  0.00  0.17  0.00  0.65  0.00  0.00  0.00
  YS02001629YS02163301    1.00   0.15  0.01  0.00  0.84  0.00  0.00  0.00  0.00  0.00
  YS02001633YS02163601    1.00   0.00  0.01  0.00  0.99  0.00  0.00  0.00  0.15  0.00
  YS02001641YS02001644    1.00   0.00  0.01  0.00  0.99  0.00  0.00  0.00  0.00  0.00
  YS02001644YS02001647    1.00   0.00  0.17  0.00  0.83  0.00  0.00  0.00  0.00  0.00
  YS02001647YS02001649    1.00   0.00  0.17  0.00  0.57  0.26  0.00  0.00  0.56  0.00
  YS02001649YS02001757    1.00   0.00  0.00  0.00  0.87  0.12  0.00  0.00  0.43  0.00
  YS02001652YS02001649    1.00   0.00  0.00  0.00  0.97  0.03  0.00  0.00  0.73  0.00
  YS02001655YS02001652    1.00   0.00  0.00  0.00  0.20  0.01  0.00  0.79  0.05  0.00
  YS02001658YS02001655    1.00   0.00  0.14  0.00  0.68  0.18  0.00  0.00  0.67  0.00
  YS02001661YS02001658    1.00   0.14  0.00  0.00  0.51  0.35  0.00  0.00  0.68  0.00
  YS02001664YS02001661    1.00   0.13  0.00  0.00  0.78  0.10  0.00  0.00  0.85  0.00
  YS02001745YS02001748    1.00   0.00  0.00  0.00  0.11  0.01  0.00  0.88  0.05  0.00
  YS02001748YS02001751    1.00   0.00  0.00  0.00  0.84  0.16  0.00  0.00  0.76  0.00
  YS02001751YS02001754    1.00   0.00  0.00  0.00  0.19  0.00  0.00  0.81  0.04  0.00
  YS02001754YS02001757    1.00   0.00  0.00  0.00  1.00  0.00  0.00  0.00  0.80  0.00
  YS02001757CaochengTiaoxuchi    1.00   0.00  0.00  0.00  1.00  0.00  0.00  0.00  0.53  0.00
  YS02001759YS02001757    1.00   0.00  0.00  0.00  1.00  0.00  0.00  0.00  0.51  0.00
  YS02001762YS02001759    1.00   0.00  0.00  0.00  1.00  0.00  0.00  0.00  0.06  0.00
  YS02001765YS02001762    1.00   0.00  0.00  0.00  1.00  0.00  0.00  0.00  0.66  0.00
  YS02001767YS02001765    1.00   0.00  0.00  0.00  1.00  0.00  0.00  0.00  0.01  0.00
  YS02001770YS02001767    1.00   0.00  0.00  0.00  1.00  0.00  0.00  0.00  0.00  0.00
  YS02001774YS02001770    1.00   0.00  0.13  0.00  0.70  0.00  0.17  0.00  0.03  0.00
  YS02001779YS02001774    1.00   0.00  0.00  0.00  1.00  0.00  0.00  0.00  0.76  0.00
  YS02001783YS02001784    1.00   0.00  0.18  0.00  0.82  0.00  0.00  0.00  0.55  0.00
  YS02001784YS02001785    1.00   0.00  0.00  0.00  1.00  0.00  0.00  0.00  0.17  0.00
  YS02001786YS02001788    1.00   0.00  0.00  0.00  0.79  0.20  0.00  0.00  0.00  0.00
  YS02001788YS02001790    1.00   0.00  0.00  0.00  0.21  0.79  0.00  0.00  0.80  0.00
  YS02001790YS02001791    1.00   0.00  0.00  0.00  0.01  0.99  0.00  0.00  0.16  0.00
  YS02001791YS02001793    1.00   0.00  0.00  0.00  0.00  1.00  0.00  0.00  0.01  0.00
  YS02001793JiankangQianchi    1.00   0.00  0.00  0.00  0.98  0.02  0.00  0.00  0.96  0.00
  YS02001882YS02001884    1.00   0.15  0.01  0.00  0.84  0.00  0.00  0.00  0.00  0.00
  YS02001884YS02001887    1.00   0.06  0.05  0.00  0.89  0.00  0.00  0.00  0.00  0.00
  YS02001887YS02001890    1.00   0.00  0.00  0.00  0.97  0.00  0.03  0.00  0.00  0.00
  YS02001890YS02001895    1.00   0.00  0.16  0.00  0.84  0.00  0.00  0.00  0.00  0.00
  YS02001895YS02001898    1.00   0.16  0.00  0.00  0.82  0.00  0.02  0.00  0.00  0.00
  YS02001898YS02001901    1.00   0.17  0.00  0.00  0.83  0.00  0.00  0.00  0.01  0.00
  YS02001901YS02001904    1.00   0.16  0.00  0.00  0.84  0.00  0.00  0.00  0.00  0.00
  YS02001904YS02001907    1.00   0.00  0.16  0.00  0.84  0.00  0.00  0.00  0.00  0.00
  YS02001907YS02006553    1.00   0.00  0.02  0.00  0.98  0.00  0.00  0.00  0.00  0.00
  YS02001910YS02001907    1.00   0.00  0.00  0.00  0.97  0.00  0.00  0.03  0.12  0.00
  YS02001915YS02001910    1.00   0.00  0.00  0.00  0.97  0.03  0.00  0.00  0.16  0.00
  YS02001918YS02001915    1.00   0.00  0.01  0.00  0.98  0.02  0.00  0.00  0.74  0.00
  YS02001920YS02001918    1.00   0.00  0.01  0.00  0.99  0.00  0.00  0.00  0.00  0.00
  YS02001923YS02001920    1.00   0.00  0.00  0.00  1.00  0.00  0.00  0.00  0.92  0.00
  YS02001926YS02001923    1.00   0.00  0.07  0.00  0.06  0.00  0.86  0.00  0.00  0.00
  YS02001929YS02001926    1.00   0.00  0.13  0.00  0.87  0.00  0.00  0.00  0.82  0.00
  YS02006553YS02006556    1.00   0.01  0.00  0.00  0.99  0.00  0.00  0.00  0.03  0.00
  YS02006556YS02006558    1.00   0.00  0.00  0.00  1.00  0.00  0.00  0.00  0.00  0.00
  YS02006558YS02006561    1.00   0.18  0.00  0.00  0.06  0.76  0.00  0.00  0.18  0.00
  YS02006561YS02001783    1.00   0.18  0.00  0.00  0.09  0.73  0.00  0.00  0.68  0.00
  YS02163301YS02001633    1.00   0.00  0.15  0.00  0.85  0.00  0.00  0.00  0.00  0.00
  YS02163601YS02164001    1.00   0.00  0.08  0.00  0.92  0.00  0.00  0.00  0.00  0.00
  YS02164001YS02001641    1.00   0.01  0.07  0.00  0.92  0.00  0.00  0.00  0.05  0.00
  
  
  *************************
  Conduit Surcharge Summary
  *************************
  
  ----------------------------------------------------------------------------
                                                           Hours        Hours 
                         --------- Hours Full --------   Above Full   Capacity
  Conduit                Both Ends  Upstream  Dnstream   Normal Flow   Limited
  ----------------------------------------------------------------------------
  WS02003072WS02003073        0.01      0.01      0.01      1.54         0.01
  WS02004403WS02004404        0.01      0.01      0.02      0.01         0.01
  WS02004404WS02004405        0.01      0.02      0.01      3.41         0.01
  WS02004405WS02004406        0.01      0.01      0.01      0.90         0.01
  WS02006109WS02006110        0.90      0.90      2.12      1.07         0.01
  WS02006110WS02006113        0.01      0.01      2.10      0.01         0.01
  WS02006111WS02006112        0.01      0.01      2.41      0.01         0.01
  WS02006112WS02006115        0.01      0.01      1.17      0.01         0.01
  WS02006228WS02006109        2.08      2.12      2.08      2.66         2.08
  WS02006229WS02006228        2.07      2.08      2.07      2.30         2.05
  WS02006230WS02006229        2.18      2.28      2.18      3.84         2.18
  WS02006231WS02006230        0.93      0.93      1.17      3.66         0.01
  WS02006232WS02006231        1.10      1.10      2.14      1.18         0.01
  WS02006234WS02006232        2.03      2.03      2.14      1.15         1.14
  WS02006235WS02006234        1.53      1.54      2.05      3.53         0.02
  WS02006238WS02006235        2.08      2.08      2.14      0.01         0.01
  WS02006239WS02006238        2.09      2.11      2.11      2.07         1.78
  WS02006240WS02006239        2.06      2.09      2.07      2.07         1.67
  WS02006242WS02006240        2.08      2.08      2.12      2.19         0.01
  WS02006243WS02006242        2.04      2.04      2.11      0.01         0.06
  WS02006245WS02006243        2.02      2.03      2.03      1.12         1.14
  WS02006247WS02006245        2.02      2.03      2.02      3.37         2.01
  WS02006248WS02006247        2.02      2.02      2.03      0.01         0.06
  WS02006249WS02006248        2.02      2.02      2.02      3.33         0.01
  WS02006251WS02006249        2.02      2.02      2.02      2.16         1.93
  WS02006252WS02006251        2.20      2.20      2.20      2.20         0.01
  WS02006256WS02006235        3.53      3.58      5.03      1.54         0.01
  YS02001580YS02001583        0.66      0.66      0.71      0.01         0.01
  YS02001583YS02001586        0.66      0.66      0.80      0.01         0.01
  YS02001586YS02001590        0.81      0.81      0.88      0.01         0.01
  YS02001590YS02001593        0.88      0.88      0.90      0.92         0.01
  YS02001593YS02001596        0.89      0.89      1.00      0.01         0.01
  YS02001596YS02001600        1.05      1.05      1.16      0.01         0.01
  YS02001600YS02001601        1.22      1.22      1.48      0.01         0.01
  YS02001601YS02001602        1.39      1.39      1.51      1.14         0.01
  YS02001602YS02001605        1.34      1.34      1.39      2.29         0.01
  YS02001605YS02001607        1.30      1.34      1.30      1.45         1.30
  YS02001607YS02001610        0.87      0.87      0.90      0.01         0.01
  YS02001610YS02001613        0.87      0.87      0.90      0.01         0.01
  YS02001613YS02001616        0.83      0.83      0.87      0.01         0.01
  YS02001616YS02001619        0.81      0.81      0.83      0.01         0.01
  YS02001619YS02001622        0.81      0.81      0.81      0.85         0.75
  YS02001622YS02001625        0.81      0.81      1.00      0.01         0.01
  YS02001625YS02001629        0.77      0.77      1.00      0.01         0.01
  YS02001629YS02163301        1.00      1.00      1.01      0.05         0.14
  YS02001633YS02163601        1.03      1.03      1.06      0.30         0.29
  YS02001641YS02001644        0.95      0.98      0.95      1.55         0.94
  YS02001644YS02001647        0.74      0.74      0.95      0.02         0.01
  YS02001647YS02001649        0.74      0.74      0.88      0.01         0.01
  YS02001649YS02001757        0.88      0.88      0.95      0.07         0.03
  YS02001652YS02001649        0.70      0.70      0.88      0.01         0.01
  YS02001655YS02001652        0.50      0.50      0.67      0.01         0.01
  YS02001658YS02001655        0.26      0.26      0.49      0.01         0.01
  YS02001661YS02001658        0.04      0.04      0.26      0.01         0.01
  YS02001664YS02001661        0.01      0.01      0.11      0.01         0.01
  YS02001745YS02001748        0.01      0.01      0.21      0.01         0.01
  YS02001748YS02001751        0.24      0.24      0.36      0.01         0.01
  YS02001751YS02001754        0.36      0.36      0.57      0.01         0.01
  YS02001754YS02001757        0.62      0.62      0.95      0.01         0.01
  YS02001757CaochengTiaoxuchi        0.95      0.95      2.01      0.35         0.35
  YS02001759YS02001757        0.85      0.85      0.95      0.01         0.01
  YS02001762YS02001759        0.82      0.82      0.85      0.01         0.01
  YS02001765YS02001762        0.77      0.77      0.82      0.01         0.01
  YS02001767YS02001765        0.74      0.74      0.77      0.01         0.02
  YS02001770YS02001767        0.73      0.73      0.74      0.56         0.49
  YS02001774YS02001770        0.71      0.71      0.80      0.01         0.01
  YS02001779YS02001774        0.57      0.57      0.80      0.01         0.01
  YS02001783YS02001784        0.54      0.57      0.54      0.72         0.54
  YS02001784YS02001785        0.44      0.54      0.44      0.97         0.44
  YS02001786YS02001788        0.01      0.44      0.01      0.82         0.01
  YS02001790YS02001791        0.01      0.01      0.01      0.53         0.01
  YS02001793JiankangQianchi        0.01      0.01      7.70      0.01         0.01
  YS02001882YS02001884        0.51      0.51      0.52      0.01         0.01
  YS02001884YS02001887        0.55      0.55      0.56      0.01         0.01
  YS02001887YS02001890        0.57      0.57      0.59      0.13         0.01
  YS02001890YS02001895        0.50      0.50      0.60      0.01         0.01
  YS02001895YS02001898        0.50      0.50      0.50      0.01         0.01
  YS02001898YS02001901        0.51      0.51      0.54      0.01         0.01
  YS02001901YS02001904        0.54      0.54      0.54      0.01         0.01
  YS02001904YS02001907        0.54      0.54      0.81      0.01         0.01
  YS02001907YS02006553        0.98      0.98      1.06      0.01         0.01
  YS02001910YS02001907        0.60      0.60      0.79      0.01         0.01
  YS02001915YS02001910        0.51      0.51      0.60      0.01         0.01
  YS02001918YS02001915        0.42      0.42      0.51      0.01         0.01
  YS02001920YS02001918        0.42      0.42      0.44      0.01         0.01
  YS02001923YS02001920        0.38      0.38      0.44      0.01         0.01
  YS02001926YS02001923        0.12      0.12      0.15      0.01         0.01
  YS02001929YS02001926        0.01      0.01      0.15      0.01         0.01
  YS02006553YS02006556        0.69      0.69      0.81      0.01         0.01
  YS02006556YS02006558        0.75      0.75      0.83      0.01         0.01
  YS02006558YS02006561        0.46      0.69      0.46      0.91         0.46
  YS02006561YS02001783        0.39      0.39      0.57      0.01         0.01
  YS02163301YS02001633        1.01      1.01      1.04      0.01         0.01
  YS02163601YS02164001        0.98      0.98      1.06      0.07         0.01
  YS02164001YS02001641        0.98      0.98      0.98      0.71         0.64
  
  
  ***************
  Pumping Summary
  ***************
  
  ---------------------------------------------------------------------------------------------------------
                                                  Min       Avg       Max     Total     Power    % Time Off
                        Percent   Number of      Flow      Flow      Flow    Volume     Usage    Pump Curve
  Pump                 Utilized   Start-Ups       LPS       LPS       LPS  10^6 ltr     Kw-hr    Low   High
  ---------------------------------------------------------------------------------------------------------
  CC-R1                   18.97           2      0.00    683.00    683.00     3.731     70.95    0.0    5.5
  CC-R2                   14.85           3      0.00    683.00    683.00     2.921     55.91    0.0    7.0
  CC-S1                   42.84           4      0.00    200.00    200.00     2.467     14.01    0.0    0.0
  CC-S2                   27.47           3      0.00    200.00    200.00     1.582      8.70    0.0    0.0
  JK-R1                    5.83           9      0.00   1000.00   1000.00     1.680     19.27    0.0    0.0
  JK-R2                    2.92           4      0.00   1000.00   1000.00     0.840      6.64    0.0    0.0
  JK-S                    19.24          20      0.00    300.00    300.00     1.662     23.37    0.0    0.0
  

  Analysis begun on:  Tue Apr 15 14:19:09 2025
  Analysis ended on:  Tue Apr 15 14:19:11 2025
  Total elapsed time: 00:00:02