
  EPA STORM WATER MANAGEMENT MODEL - VERSION 5.2 (Build 5.2.4)
  PYSWMM TOOLKIT API - VERSION v1.0 (2023-11-27)
  ------------------------------------------------------------

  WARNING 04: minimum elevation drop used for Conduit WS02004404WS02004405
  WARNING 03: negative offset ignored for Link YS02001904YS02001907
  
  ****************
  Analysis Options
  ****************
  Flow Units ............... LPS
  Process Models:
    Rainfall/Runoff ........ YES
    RDII ................... NO
    Snowmelt ............... NO
    Groundwater ............ NO
    Flow Routing ........... YES
    Ponding Allowed ........ NO
    Water Quality .......... NO
  Infiltration Method ...... HORTON
  Flow Routing Method ...... DYNWAVE
  Surcharge Method ......... EXTRAN
  Starting Date ............ 08/28/2015 08:00:00
  Ending Date .............. 08/28/2015 16:00:00
  Antecedent Dry Days ...... 8.0
  Report Time Step ......... 00:01:00
  Wet Time Step ............ 00:01:00
  Dry Time Step ............ 00:01:00
  Routing Time Step ........ 30.00 sec
  Variable Time Step ....... YES
  Maximum Trials ........... 8
  Number of Threads ........ 4
  Head Tolerance ........... 0.001500 m
  
  
  **************************        Volume         Depth
  Runoff Quantity Continuity     hectare-m            mm
  **************************     ---------       -------
  Total Precipitation ......         2.344        70.678
  Evaporation Loss .........         0.000         0.000
  Infiltration Loss ........         0.099         2.996
  Surface Runoff ...........         2.213        66.706
  Final Storage ............         0.033         0.994
  Continuity Error (%) .....        -0.027
  
  
  **************************        Volume        Volume
  Flow Routing Continuity        hectare-m      10^6 ltr
  **************************     ---------     ---------
  Dry Weather Inflow .......         0.025         0.251
  Wet Weather Inflow .......         2.213        22.129
  Groundwater Inflow .......         0.000         0.000
  RDII Inflow ..............         0.000         0.000
  External Inflow ..........         0.083         0.834
  External Outflow .........         1.480        14.797
  Flooding Loss ............         0.812         8.123
  Evaporation Loss .........         0.000         0.000
  Exfiltration Loss ........         0.000         0.000
  Initial Stored Volume ....         0.243         2.431
  Final Stored Volume ......         0.276         2.765
  Continuity Error (%) .....        -0.159
  
  
  *************************
  Highest Continuity Errors
  *************************
  Node YS02001884 (5.13%)
  Node YS02001583 (-4.63%)
  
  
  ***************************
  Time-Step Critical Elements
  ***************************
  Link WS02006252WS02006251 (46.09%)
  Link WS02004404WS02004405 (12.59%)
  Link WS02006238WS02006235 (11.48%)
  Link WS02006235WS02006234 (8.84%)
  Link YS02001791YS02001793 (7.53%)
  
  
  ********************************
  Highest Flow Instability Indexes
  ********************************
  Link WS02006113WS02006111 (44)
  Link WS02006111WS02006112 (26)
  Link WS02006252WS02006251 (13)
  Link WS02006238WS02006235 (13)
  Link WS02006256WS02006235 (13)
  
  
  *********************************
  Most Frequent Nonconverging Nodes
  *********************************
  Node CC-1 (12.74%)
  Node CC-2 (12.74%)
  Node JK-1 (12.74%)
  Node JK-2 (12.74%)
  Node WSC (12.74%)
  
  
  *************************
  Routing Time Step Summary
  *************************
  Minimum Time Step           :     0.00 sec
  Average Time Step           :     2.04 sec
  Maximum Time Step           :     7.04 sec
  % of Time in Steady State   :     0.00
  Average Iterations per Step :     3.06
  % of Steps Not Converging   :    12.74
  Time Step Frequencies       :
     30.000 - 13.228 sec      :     0.00 %
     13.228 -  5.833 sec      :     9.42 %
      5.833 -  2.572 sec      :    22.46 %
      2.572 -  1.134 sec      :    16.38 %
      1.134 -  0.500 sec      :    51.74 %
  
  
  ***************************
  Subcatchment Runoff Summary
  ***************************
  
  ------------------------------------------------------------------------------------------------------------------------------
                            Total      Total      Total      Total     Imperv       Perv      Total       Total     Peak  Runoff
                           Precip      Runon       Evap      Infil     Runoff     Runoff     Runoff      Runoff   Runoff   Coeff
  Subcatchment                 mm         mm         mm         mm         mm         mm         mm    10^6 ltr      LPS
  ------------------------------------------------------------------------------------------------------------------------------
  sub60                     70.68       0.00       0.00       1.80      61.00       6.69      67.69        0.89   677.54   0.958
  sub61                     70.68       0.00       0.00       2.61      57.54       9.41      66.95        1.23   940.04   0.947
  sub62                     70.68       0.00       0.00       1.20      63.74       4.46      68.20        1.87  1323.76   0.965
  sub63                     70.68       0.00       0.00       4.81      49.22      15.69      64.91        1.47  1057.63   0.918
  sub64                     70.68       0.00       0.00       2.43      58.87       8.17      67.05        1.61  1073.88   0.949
  sub65                     70.68       0.00       0.00       2.10      60.24       7.09      67.33        1.85  1194.30   0.953
  sub66                     70.68       0.00       0.00       5.98      49.11      14.52      63.63        2.97  1556.00   0.900
  sub67                     70.68       0.00       0.00       1.16      63.79       4.50      68.29        1.27  1027.58   0.966
  sub68                     70.68       0.00       0.00       2.16      59.60       7.74      67.34        1.85  1359.47   0.953
  sub69                     70.68       0.00       0.00       1.92      59.97       8.68      68.65        2.54  1587.38   0.971
  sub70                     70.68       0.00       0.00       6.46      46.49      17.58      64.06        1.85   870.34   0.906
  sub71                     70.68       0.00       0.00       1.23      63.70       4.43      68.13        1.78  1157.70   0.964
  sub72                     70.68       0.00       0.00       1.09      64.33       3.86      68.19        0.94   558.97   0.965
  
  
  ******************
  Node Depth Summary
  ******************
  
  ---------------------------------------------------------------------------------
                                 Average  Maximum  Maximum  Time of Max    Reported
                                   Depth    Depth      HGL   Occurrence   Max Depth
  Node                 Type       Meters   Meters   Meters  days hr:min      Meters
  ---------------------------------------------------------------------------------
  WS02003060           JUNCTION     0.23     0.38     5.32     0  02:32        0.38
  WS02003066           JUNCTION     0.19     0.30     5.85     0  02:32        0.30
  WS02003067           JUNCTION     0.50     0.70     6.02     0  02:31        0.70
  WS02003069           JUNCTION     0.26     0.43     5.01     0  02:33        0.43
  WS02003072           JUNCTION     0.32     0.50     4.87     0  02:34        0.50
  WS02003073           JUNCTION     0.18     0.30     4.36     0  02:34        0.30
  WS02004401           JUNCTION     0.58     0.85     6.85     0  02:29        0.85
  WS02004402           JUNCTION     0.61     0.88     6.84     0  02:29        0.88
  WS02004403           JUNCTION     0.63     0.89     6.82     0  02:29        0.89
  WS02004404           JUNCTION     0.71     0.96     6.81     0  02:29        0.96
  WS02004405           JUNCTION     0.71     0.96     6.81     0  02:28        0.95
  WS02004406           JUNCTION     0.72     0.96     6.79     0  02:29        0.96
  WS02004407           JUNCTION     0.17     0.30     6.61     0  02:30        0.30
  WS02004409           JUNCTION     0.38     0.67     6.44     0  02:31        0.67
  WS02004410           JUNCTION     0.41     0.68     6.40     0  02:31        0.68
  WS02004411           JUNCTION     0.43     0.69     6.37     0  02:31        0.69
  WS02004412           JUNCTION     0.45     0.70     6.34     0  02:32        0.70
  WS02004413           JUNCTION     0.61     0.86     6.33     0  02:31        0.86
  WS02006109           JUNCTION     0.64     1.32     7.94     0  02:34        1.03
  WS02006110           JUNCTION     0.64     1.83     8.41     0  02:34        0.96
  WS02006111           JUNCTION     0.17     0.29     6.99     0  03:34        0.29
  WS02006112           JUNCTION     0.73     1.06     6.95     0  02:25        1.05
  WS02006113           JUNCTION     0.26     0.46     7.35     0  03:34        0.46
  WS02006115           JUNCTION     0.46     0.75     6.89     0  02:27        0.75
  WS02006116           JUNCTION     0.55     0.83     6.87     0  02:28        0.83
  WS02006228           JUNCTION     0.63     1.49     8.14     0  02:34        1.08
  WS02006229           JUNCTION     0.60     1.55     8.25     0  02:34        1.18
  WS02006230           JUNCTION     0.60     1.79     8.54     0  02:34        1.25
  WS02006231           JUNCTION     0.40     2.01     9.14     0  03:15        0.97
  WS02006232           JUNCTION     0.54     1.60     8.64     0  02:34        1.22
  WS02006234           JUNCTION     0.46     1.78     8.94     0  04:02        1.45
  WS02006235           JUNCTION     0.50     2.00     9.16     0  02:05        2.00
  WS02006238           JUNCTION     0.53     2.15     9.29     0  02:36        2.15
  WS02006239           JUNCTION     0.49     2.03     9.24     0  02:36        2.03
  WS02006240           JUNCTION     0.46     2.10     9.39     0  02:05        2.10
  WS02006242           JUNCTION     0.53     1.55     8.82     0  02:36        1.55
  WS02006243           JUNCTION     0.44     1.48     8.90     0  02:36        1.48
  WS02006245           JUNCTION     0.45     1.56     9.04     0  02:36        1.56
  WS02006247           JUNCTION     0.47     1.47     8.97     0  02:36        1.47
  WS02006248           JUNCTION     0.43     1.10     8.69     0  02:02        1.10
  WS02006249           JUNCTION     0.47     1.09     8.69     0  01:57        1.09
  WS02006251           JUNCTION     0.47     1.43     9.10     0  01:58        1.26
  WS02006252           JUNCTION     0.34     1.50     9.74     0  00:00        0.97
  WS02006256           JUNCTION     1.00     2.35     9.28     0  00:00        2.35
  WSF200               JUNCTION     0.16     0.29     5.52     0  02:32        0.29
  YS02001580           JUNCTION     0.09     1.05     9.59     0  01:53        0.79
  YS02001583           JUNCTION     0.13     1.14     9.64     0  01:53        0.91
  YS02001586           JUNCTION     0.20     1.13     9.30     0  01:53        1.13
  YS02001590           JUNCTION     0.30     1.40     9.26     0  01:51        1.38
  YS02001593           JUNCTION     0.23     1.36     9.23     0  02:05        1.30
  YS02001596           JUNCTION     0.32     1.73     9.15     0  02:05        1.65
  YS02001600           JUNCTION     0.38     1.87     9.00     0  01:53        1.87
  YS02001601           JUNCTION     0.57     2.06     8.90     0  01:51        2.06
  YS02001602           JUNCTION     0.48     1.87     8.77     0  01:53        1.87
  YS02001605           JUNCTION     0.45     1.78     8.68     0  01:53        1.78
  YS02001607           JUNCTION     0.44     1.68     8.53     0  01:53        1.64
  YS02001610           JUNCTION     0.49     1.68     8.48     0  01:53        1.68
  YS02001613           JUNCTION     0.44     1.70     8.54     0  01:53        1.69
  YS02001616           JUNCTION     0.37     1.61     8.52     0  01:53        1.61
  YS02001619           JUNCTION     0.35     1.61     8.54     0  01:53        1.61
  YS02001622           JUNCTION     0.34     1.62     8.52     0  01:53        1.58
  YS02001625           JUNCTION     0.61     1.78     8.38     0  01:53        1.78
  YS02001629           JUNCTION     0.46     1.85     8.40     0  01:53        1.85
  YS02001633           JUNCTION     0.54     2.08     8.53     0  02:26        2.08
  YS02001641           JUNCTION     0.52     2.10     8.54     0  02:05        2.10
  YS02001644           JUNCTION     0.52     1.92     8.35     0  01:57        1.92
  YS02001647           JUNCTION     0.31     1.85     8.46     0  01:58        1.85
  YS02001649           JUNCTION     0.35     2.05     8.44     0  01:58        2.05
  YS02001652           JUNCTION     0.24     2.00     8.60     0  01:58        2.00
  YS02001655           JUNCTION     0.19     1.97     8.82     0  01:57        1.78
  YS02001658           JUNCTION     0.14     2.30     9.44     0  01:57        1.48
  YS02001661           JUNCTION     0.16     1.53     8.94     0  01:58        1.25
  YS02001664           JUNCTION     0.06     0.74     8.67     0  02:01        0.74
  YS02001745           JUNCTION     0.07     0.92     8.44     0  02:01        0.89
  YS02001748           JUNCTION     0.13     1.81     8.89     0  01:57        1.32
  YS02001751           JUNCTION     0.16     1.76     8.64     0  01:57        1.51
  YS02001754           JUNCTION     0.22     1.79     8.40     0  01:57        1.77
  YS02001757           JUNCTION     0.38     2.12     8.38     0  02:05        2.05
  YS02001759           JUNCTION     0.32     2.16     8.52     0  02:05        2.12
  YS02001762           JUNCTION     0.31     2.15     8.55     0  01:58        2.15
  YS02001765           JUNCTION     0.29     2.10     8.55     0  01:58        2.10
  YS02001767           JUNCTION     0.28     2.03     8.52     0  01:58        2.03
  YS02001770           JUNCTION     0.29     1.95     8.44     0  01:58        1.95
  YS02001774           JUNCTION     0.36     2.02     8.44     0  02:05        2.01
  YS02001779           JUNCTION     0.20     1.68     8.37     0  01:56        1.68
  YS02001783           JUNCTION     0.24     1.32     7.46     0  01:56        1.24
  YS02001784           JUNCTION     0.25     1.26     7.33     0  02:05        1.26
  YS02001786           JUNCTION     0.21     0.92     6.95     0  01:56        0.88
  YS02001788           JUNCTION     0.15     0.63     6.60     0  01:59        0.62
  YS02001790           JUNCTION     0.18     0.73     6.37     0  01:58        0.72
  YS02001791           JUNCTION     0.11     0.44     5.91     0  01:58        0.43
  YS02001793           JUNCTION     0.06     0.30     5.13     0  02:11        0.30
  YS02001882           JUNCTION     0.31     1.83     8.55     0  01:54        1.69
  YS02001884           JUNCTION     0.40     1.91     8.53     0  01:54        1.79
  YS02001887           JUNCTION     0.48     1.94     8.48     0  01:54        1.88
  YS02001890           JUNCTION     0.51     1.81     8.32     0  01:54        1.81
  YS02001895           JUNCTION     0.28     1.62     8.36     0  01:54        1.56
  YS02001898           JUNCTION     0.28     1.77     8.51     0  02:05        1.77
  YS02001901           JUNCTION     0.40     1.73     8.33     0  02:12        1.73
  YS02001904           JUNCTION     0.38     1.66     8.29     0  02:05        1.66
  YS02001907           JUNCTION     0.70     1.96     8.25     0  01:56        1.96
  YS02001910           JUNCTION     0.50     2.10     8.61     0  02:05        2.10
  YS02001915           JUNCTION     0.31     2.00     8.72     0  01:54        1.95
  YS02001918           JUNCTION     0.17     1.81     8.88     0  01:56        1.81
  YS02001920           JUNCTION     0.25     2.14     9.15     0  01:56        2.05
  YS02001923           JUNCTION     0.13     2.03     9.29     0  01:56        1.94
  YS02001926           JUNCTION     0.16     1.90     9.35     0  01:56        1.90
  YS02001929           JUNCTION     0.09     1.78     9.47     0  01:56        1.69
  YS02006553           JUNCTION     0.71     2.19     8.47     0  02:05        2.19
  YS02006556           JUNCTION     0.68     2.39     8.70     0  02:05        2.39
  YS02006558           JUNCTION     0.72     2.50     8.77     0  02:05        2.50
  YS02006561           JUNCTION     0.15     1.04     7.70     0  01:56        0.91
  YS02163301           JUNCTION     0.48     2.03     8.54     0  02:26        2.03
  YS02163601           JUNCTION     0.58     2.08     8.48     0  02:05        2.08
  YS02164001           JUNCTION     0.51     2.10     8.56     0  02:26        2.10
  CC-1                 OUTFALL      0.00     0.00     0.00     0  00:00        0.00
  CC-2                 OUTFALL      0.00     0.00     0.00     0  00:00        0.00
  JK-1                 OUTFALL      0.00     0.00     0.00     0  00:00        0.00
  JK-2                 OUTFALL      0.00     0.00     0.00     0  00:00        0.00
  WSC                  OUTFALL      0.18     0.30     0.97     0  02:34        0.30
  CC-storage           STORAGE      0.98     1.72     7.22     0  02:30        1.72
  JK-storage           STORAGE      3.15     4.24     5.04     0  02:02        4.18
  
  
  *******************
  Node Inflow Summary
  *******************
  
  -------------------------------------------------------------------------------------------------
                                  Maximum  Maximum                  Lateral       Total        Flow
                                  Lateral    Total  Time of Max      Inflow      Inflow     Balance
                                   Inflow   Inflow   Occurrence      Volume      Volume       Error
  Node                 Type           LPS      LPS  days hr:min    10^6 ltr    10^6 ltr     Percent
  -------------------------------------------------------------------------------------------------
  WS02003060           JUNCTION     16.53   552.60     0  02:32       0.476        5.36       0.081
  WS02003066           JUNCTION      0.00   535.86     0  02:32           0        4.88       0.044
  WS02003067           JUNCTION      0.00   535.82     0  02:31           0        4.89       0.107
  WS02003069           JUNCTION      0.32   552.76     0  02:33     0.00922        5.36       0.138
  WS02003072           JUNCTION      0.00   552.62     0  02:33           0        5.35       0.219
  WS02003073           JUNCTION      1.82   554.37     0  02:34      0.0524        5.39       0.205
  WS02004401           JUNCTION      0.00   537.89     0  02:22           0        5.01       0.232
  WS02004402           JUNCTION      0.00   537.03     0  02:28           0           5       0.233
  WS02004403           JUNCTION      0.00   536.84     0  02:22           0        4.99       0.224
  WS02004404           JUNCTION      0.16   536.84     0  02:29     0.00467        4.98       0.196
  WS02004405           JUNCTION      0.04   536.93     0  02:29      0.0011        4.97       0.263
  WS02004406           JUNCTION      0.00   536.94     0  02:29           0        4.96       0.455
  WS02004407           JUNCTION      0.00   536.62     0  02:30           0        4.94       0.043
  WS02004409           JUNCTION      0.00   536.41     0  02:30           0        4.94       0.102
  WS02004410           JUNCTION      0.00   536.17     0  02:30           0        4.93       0.141
  WS02004411           JUNCTION      0.00   536.11     0  02:30           0        4.92       0.166
  WS02004412           JUNCTION      0.00   535.96     0  02:31           0        4.92       0.206
  WS02004413           JUNCTION      0.00   536.04     0  02:31           0        4.91       0.345
  WS02006109           JUNCTION      1.23   560.03     0  02:34      0.0354        5.06       0.187
  WS02006110           JUNCTION      0.00   560.85     0  02:34           0        5.06       0.147
  WS02006111           JUNCTION      0.00   563.54     0  03:34           0        5.05       0.019
  WS02006112           JUNCTION      0.00   543.39     0  03:34           0        5.04       0.383
  WS02006113           JUNCTION      0.00   566.64     0  02:34           0        5.05       0.046
  WS02006115           JUNCTION      0.00   547.38     0  02:06           0        5.03       0.160
  WS02006116           JUNCTION      0.00   539.19     0  02:25           0        5.02       0.128
  WS02006228           JUNCTION      0.00   558.08     0  02:34           0        5.03       0.084
  WS02006229           JUNCTION      0.00   557.92     0  02:34           0        5.04       0.106
  WS02006230           JUNCTION     10.28   639.43     0  02:36       0.296        5.04       0.102
  WS02006231           JUNCTION      0.00   607.86     0  02:36           0        4.75      -0.057
  WS02006232           JUNCTION      0.00   601.96     0  02:36           0        4.76       0.237
  WS02006234           JUNCTION      0.00   585.93     0  02:36           0        4.75      -0.176
  WS02006235           JUNCTION      0.00   564.68     0  02:36           0        4.82       0.144
  WS02006238           JUNCTION      0.00   425.41     0  02:35           0        3.89      -0.171
  WS02006239           JUNCTION      0.00   424.41     0  02:35           0        3.86      -0.087
  WS02006240           JUNCTION      0.00   420.91     0  02:35           0        3.83      -0.049
  WS02006242           JUNCTION      0.00   421.20     0  03:15           0         3.8      -0.033
  WS02006243           JUNCTION      0.00   422.05     0  03:15           0        3.79       0.139
  WS02006245           JUNCTION      0.00   423.30     0  03:15           0        3.79       0.314
  WS02006247           JUNCTION      0.00   425.00     0  03:15           0        3.79       0.034
  WS02006248           JUNCTION      0.00   426.57     0  03:15           0        3.79       0.072
  WS02006249           JUNCTION      0.00   459.02     0  00:00           0        4.01       0.266
  WS02006251           JUNCTION      0.08   407.63     0  01:58     0.00222        4.01      -0.026
  WS02006252           JUNCTION      0.00   400.00     0  00:00           0           4      -0.031
  WS02006256           JUNCTION      0.00   300.00     0  00:00           0        1.38      -0.708
  WSF200               JUNCTION      0.00   535.90     0  02:32           0        4.88       0.023
  YS02001580           JUNCTION      0.00   136.96     0  01:53           0     0.00441      -0.543
  YS02001583           JUNCTION      0.00   180.72     0  01:53           0      0.0155      -4.421
  YS02001586           JUNCTION    870.34   870.68     0  02:04        1.85        1.86       0.066
  YS02001590           JUNCTION      0.00   345.05     0  02:05           0        1.36      -0.043
  YS02001593           JUNCTION      0.00   324.69     0  02:05           0        1.36      -0.000
  YS02001596           JUNCTION      0.00   318.02     0  02:07           0        1.36      -0.002
  YS02001600           JUNCTION      0.00   318.44     0  02:05           0        1.36       0.007
  YS02001601           JUNCTION   1587.38  1904.89     0  02:03        2.54         3.9       0.010
  YS02001602           JUNCTION      0.00   523.50     0  01:53           0        2.26       0.018
  YS02001605           JUNCTION      0.00   523.43     0  01:53           0        2.14       0.028
  YS02001607           JUNCTION      0.00   523.04     0  01:53           0        2.13       0.084
  YS02001610           JUNCTION      0.00   877.97     0  02:03           0        2.49       0.079
  YS02001613           JUNCTION      0.00   542.66     0  01:52           0        1.97       0.074
  YS02001616           JUNCTION      0.00   543.44     0  01:52           0        1.97       0.023
  YS02001619           JUNCTION   1556.00  1556.00     0  02:03        2.97        4.58      -0.005
  YS02001622           JUNCTION      0.00  1022.35     0  02:02           0        4.23      -0.001
  YS02001625           JUNCTION      0.00  1428.05     0  02:04           0        4.49       0.194
  YS02001629           JUNCTION      0.00   924.40     0  01:53           0        3.43       0.018
  YS02001633           JUNCTION   1194.50  1370.21     0  01:55        1.86        4.94       0.068
  YS02001641           JUNCTION      0.00  1368.05     0  01:55           0         4.6       0.060
  YS02001644           JUNCTION   1073.92  1781.80     0  01:55        1.61        6.21       0.050
  YS02001647           JUNCTION      0.00  1781.61     0  01:55           0        5.49       0.009
  YS02001649           JUNCTION      0.00  2013.34     0  01:55           0        6.97       0.004
  YS02001652           JUNCTION      0.00  1087.98     0  02:01           0        1.48      -0.071
  YS02001655           JUNCTION      0.15  1087.65     0  02:01     0.00443        1.48      -0.051
  YS02001658           JUNCTION      0.00  1088.03     0  02:01           0        1.48      -0.046
  YS02001661           JUNCTION      0.00  1085.88     0  02:01           0        1.48       0.017
  YS02001664           JUNCTION   1057.63  1057.63     0  02:02        1.47        1.47      -0.011
  YS02001745           JUNCTION    677.55   677.55     0  02:02        0.89        0.89       0.176
  YS02001748           JUNCTION      0.04   700.88     0  02:01      0.0013       0.891      -0.225
  YS02001751           JUNCTION      0.01   700.57     0  02:01    0.000317       0.898       0.087
  YS02001754           JUNCTION      0.26   701.10     0  02:01     0.00749       0.911      -0.159
  YS02001757           JUNCTION      0.00  3399.44     0  02:00           0        10.6       0.016
  YS02001759           JUNCTION    940.08  1433.99     0  02:01        1.23        2.77      -0.004
  YS02001762           JUNCTION      0.00   761.86     0  01:57           0        1.54       0.013
  YS02001765           JUNCTION      0.00   763.81     0  01:57           0        1.54       0.028
  YS02001767           JUNCTION      0.54   763.52     0  01:57      0.0154        1.54       0.013
  YS02001770           JUNCTION   1323.91  1323.91     0  02:02        1.87        1.92       0.002
  YS02001774           JUNCTION      0.00   832.90     0  02:02           0       0.411       0.289
  YS02001779           JUNCTION      0.01   833.36     0  02:02    0.000144       0.365      -0.180
  YS02001783           JUNCTION      0.00  1170.42     0  01:59           0        4.06       0.007
  YS02001784           JUNCTION      1.06  1171.78     0  01:59      0.0305        4.09       0.012
  YS02001786           JUNCTION      0.06  1171.91     0  01:59     0.00162        4.09       0.018
  YS02001788           JUNCTION      0.07  1171.99     0  01:59     0.00204        4.09       0.007
  YS02001790           JUNCTION      0.15  1183.05     0  02:00     0.00446         4.1       0.022
  YS02001791           JUNCTION      0.00  1291.49     0  01:58           0         4.1      -0.023
  YS02001793           JUNCTION      0.00  1244.21     0  02:05           0         4.1       0.003
  YS02001882           JUNCTION      0.00    74.54     0  01:54           0      0.0128       5.697
  YS02001884           JUNCTION      0.00    79.90     0  01:54           0      0.0488       5.409
  YS02001887           JUNCTION   1028.03  1028.03     0  02:01        1.28        1.32       0.332
  YS02001890           JUNCTION      0.00  1028.92     0  02:01           0        1.28       0.389
  YS02001895           JUNCTION      0.00   519.21     0  02:04           0        1.09       0.153
  YS02001898           JUNCTION      0.00   518.55     0  02:04           0        1.09       0.010
  YS02001901           JUNCTION      0.00   523.18     0  02:05           0        1.09       0.306
  YS02001904           JUNCTION      0.00   518.86     0  02:05           0         1.1       0.244
  YS02001907           JUNCTION      0.00  2420.35     0  02:02           0        3.93       0.447
  YS02001910           JUNCTION      0.00  1724.53     0  02:02           0         2.8       0.250
  YS02001915           JUNCTION   1157.72  1724.54     0  02:02        1.78        2.84       0.056
  YS02001918           JUNCTION      0.00   568.28     0  02:02           0        1.09       0.018
  YS02001920           JUNCTION      2.87   566.76     0  02:02      0.0827        1.07       0.084
  YS02001923           JUNCTION      0.04   565.49     0  02:02     0.00109       0.975      -0.121
  YS02001926           JUNCTION      0.05   594.53     0  01:56      0.0015       0.954      -0.056
  YS02001929           JUNCTION    558.97   558.97     0  02:03       0.938       0.941      -0.037
  YS02006553           JUNCTION      0.00   805.81     0  02:21           0         2.3       0.518
  YS02006556           JUNCTION      0.00   805.57     0  02:21           0        2.31       0.331
  YS02006558           JUNCTION   1360.35  1360.35     0  02:02        1.88        4.13       0.082
  YS02006561           JUNCTION      0.00  1174.33     0  01:56           0        4.06      -0.005
  YS02163301           JUNCTION      0.00   923.19     0  01:55           0        3.42       0.044
  YS02163601           JUNCTION      0.11  1369.97     0  01:55     0.00317         4.6       0.108
  YS02164001           JUNCTION      0.00  1369.28     0  01:55           0         4.6       0.053
  CC-1                 OUTFALL       0.00   683.00     0  00:00           0        3.84       0.000
  CC-2                 OUTFALL       0.00   683.00     0  00:00           0        2.84       0.000
  JK-1                 OUTFALL       0.00  1000.00     0  00:00           0        2.38       0.000
  JK-2                 OUTFALL       0.00  1000.00     0  00:00           0       0.352       0.000
  WSC                  OUTFALL       0.00   554.28     0  02:34           0        5.38       0.000
  CC-storage           STORAGE       0.00  3400.17     0  02:00           0        12.9      -0.074
  JK-storage           STORAGE       0.00  1244.07     0  01:58           0        4.25      -0.034
  
  
  **********************
  Node Surcharge Summary
  **********************
  
  Surcharging occurs when water rises above the top of the highest conduit.
  ---------------------------------------------------------------------
                                               Max. Height   Min. Depth
                                   Hours       Above Crown    Below Rim
  Node                 Type      Surcharged         Meters       Meters
  ---------------------------------------------------------------------
  WS02006109           JUNCTION        2.13          0.498        1.322
  WS02006110           JUNCTION        0.67          0.915        0.935
  WS02006112           JUNCTION        0.74          0.063        1.617
  WS02006228           JUNCTION        2.12          0.658        1.542
  WS02006229           JUNCTION        2.13          0.753        1.697
  WS02006230           JUNCTION        0.67          0.711        0.859
  WS02006231           JUNCTION        0.83          1.302        0.228
  WS02006232           JUNCTION        2.17          0.903        0.577
  WS02006234           JUNCTION        1.19          1.058        0.182
  WS02006235           JUNCTION        2.08          1.290        0.000
  WS02006238           JUNCTION        2.13          1.430        0.000
  WS02006239           JUNCTION        2.09          1.290        0.000
  WS02006240           JUNCTION        2.07          1.390        0.000
  WS02006242           JUNCTION        2.11          0.820        0.000
  WS02006243           JUNCTION        2.05          0.770        0.000
  WS02006245           JUNCTION        2.05          0.850        0.000
  WS02006247           JUNCTION        2.05          0.760        0.000
  WS02006248           JUNCTION        2.04          0.380        0.000
  WS02006249           JUNCTION        2.04          0.390        0.000
  WS02006251           JUNCTION        0.90          0.404        0.776
  WS02006252           JUNCTION        2.17          1.100        0.000
  WS02006256           JUNCTION        5.19          2.050        0.000
  YS02001580           JUNCTION        0.66          0.450        0.000
  YS02001583           JUNCTION        0.67          0.500        0.000
  YS02001586           JUNCTION        0.79          0.510        0.000
  YS02001590           JUNCTION        0.86          0.750        0.000
  YS02001593           JUNCTION        0.86          0.744        0.096
  YS02001596           JUNCTION        0.97          0.999        0.071
  YS02001600           JUNCTION        1.12          1.190        0.000
  YS02001601           JUNCTION        1.45          1.440        0.000
  YS02001602           JUNCTION        1.35          1.270        0.000
  YS02001605           JUNCTION        1.31          1.180        0.000
  YS02001607           JUNCTION        0.85          0.680        0.000
  YS02001610           JUNCTION        0.87          0.680        0.000
  YS02001613           JUNCTION        0.84          0.700        0.000
  YS02001616           JUNCTION        0.80          0.610        0.000
  YS02001619           JUNCTION        0.79          0.610        0.000
  YS02001622           JUNCTION        0.78          0.620        0.000
  YS02001625           JUNCTION        0.97          0.780        0.000
  YS02001629           JUNCTION        0.74          0.470        0.000
  YS02001633           JUNCTION        0.99          1.060        0.000
  YS02001641           JUNCTION        0.94          1.100        0.000
  YS02001644           JUNCTION        0.92          0.920        0.000
  YS02001647           JUNCTION        0.72          0.846        0.054
  YS02001649           JUNCTION        0.85          1.050        0.000
  YS02001652           JUNCTION        0.65          0.971        0.159
  YS02001655           JUNCTION        0.48          0.974        0.226
  YS02001658           JUNCTION        0.27          1.300        0.000
  YS02001661           JUNCTION        0.09          0.464        0.926
  YS02001748           JUNCTION        0.21          0.732        0.458
  YS02001751           JUNCTION        0.35          0.765        0.435
  YS02001754           JUNCTION        0.55          0.743        0.407
  YS02001757           JUNCTION        0.92          1.119        0.091
  YS02001759           JUNCTION        0.82          1.156        0.054
  YS02001762           JUNCTION        0.78          1.150        0.000
  YS02001765           JUNCTION        0.74          1.100        0.000
  YS02001767           JUNCTION        0.71          1.030        0.000
  YS02001770           JUNCTION        0.67          0.920        0.000
  YS02001774           JUNCTION        0.76          1.015        0.035
  YS02001779           JUNCTION        0.54          0.680        0.000
  YS02001783           JUNCTION        0.57          0.519        1.081
  YS02001784           JUNCTION        0.54          0.462        1.028
  YS02001786           JUNCTION        0.44          0.118        1.312
  YS02001882           JUNCTION        0.52          0.830        0.000
  YS02001884           JUNCTION        0.53          0.853        0.017
  YS02001887           JUNCTION        0.56          0.888        0.062
  YS02001890           JUNCTION        0.57          0.760        0.000
  YS02001895           JUNCTION        0.51          0.616        0.134
  YS02001898           JUNCTION        0.50          0.740        0.000
  YS02001901           JUNCTION        0.55          0.726        0.144
  YS02001904           JUNCTION        0.54          0.665        0.185
  YS02001907           JUNCTION        0.77          0.950        0.000
  YS02001910           JUNCTION        0.60          1.100        0.000
  YS02001915           JUNCTION        0.51          1.000        0.000
  YS02001918           JUNCTION        0.43          0.810        0.000
  YS02001920           JUNCTION        0.44          1.140        0.000
  YS02001923           JUNCTION        0.16          0.820        0.000
  YS02001926           JUNCTION        0.18          0.900        0.000
  YS02001929           JUNCTION        0.02          0.780        0.000
  YS02006553           JUNCTION        0.79          1.190        0.000
  YS02006556           JUNCTION        0.68          1.350        0.000
  YS02006558           JUNCTION        0.67          1.400        0.000
  YS02006561           JUNCTION        0.40          0.242        0.908
  YS02163301           JUNCTION        0.98          1.026        0.004
  YS02163601           JUNCTION        1.03          1.080        0.000
  YS02164001           JUNCTION        0.95          1.100        0.000
  
  
  *********************
  Node Flooding Summary
  *********************
  
  Flooding refers to all water that overflows a node, whether it ponds or not.
  --------------------------------------------------------------------------
                                                             Total   Maximum
                                 Maximum   Time of Max       Flood    Ponded
                        Hours       Rate    Occurrence      Volume     Depth
  Node                 Flooded       LPS   days hr:min    10^6 ltr    Meters
  --------------------------------------------------------------------------
  WS02006235              0.01      1.91      0  02:36       0.000     0.000
  WS02006238              0.01      2.42      0  02:36       0.000     0.000
  WS02006239              0.01      4.57      0  02:46       0.000     0.000
  WS02006240              0.01      3.31      0  02:36       0.000     0.000
  WS02006242              0.01     25.54      0  02:46       0.000     0.000
  WS02006243              0.01      1.54      0  02:36       0.000     0.000
  WS02006245              0.01      1.44      0  02:36       0.000     0.000
  WS02006247              0.01      1.44      0  02:36       0.000     0.000
  WS02006248              0.02     21.47      0  02:20       0.001     0.000
  WS02006249              0.87    108.88      0  01:58       0.205     0.000
  WS02006252              0.01    245.63      0  00:00       0.000     0.000
  WS02006256              1.28    293.19      0  00:00       0.417     0.000
  YS02001580              0.01    122.32      0  01:53       0.000     0.000
  YS02001583              0.01    110.73      0  01:53       0.000     0.000
  YS02001586              0.54    553.02      0  02:04       0.494     0.000
  YS02001590              0.01     36.37      0  01:51       0.000     0.000
  YS02001600              0.01      5.07      0  02:05       0.000     0.000
  YS02001601              0.71   1507.07      0  02:03       1.635     0.000
  YS02001602              0.62     67.77      0  02:05       0.126     0.000
  YS02001605              0.01      5.66      0  02:05       0.000     0.000
  YS02001607              0.01     57.36      0  02:05       0.000     0.000
  YS02001610              0.55    877.32      0  02:03       0.867     0.000
  YS02001613              0.01      4.48      0  01:53       0.000     0.000
  YS02001616              0.01     34.59      0  01:53       0.000     0.000
  YS02001619              0.01     36.82      0  01:53       0.000     0.000
  YS02001622              0.01     85.01      0  01:53       0.000     0.000
  YS02001625              0.52   1427.81      0  02:04       1.385     0.000
  YS02001629              0.17    283.52      0  02:01       0.094     0.000
  YS02001633              0.01      0.31      0  02:26       0.000     0.000
  YS02001641              0.01      0.78      0  02:05       0.000     0.000
  YS02001644              0.24   1559.22      0  02:02       0.707     0.000
  YS02001649              0.01      4.91      0  01:58       0.000     0.000
  YS02001658              0.01    461.28      0  01:57       0.000     0.000
  YS02001762              0.01     27.57      0  02:05       0.000     0.000
  YS02001765              0.01     23.49      0  02:05       0.000     0.000
  YS02001767              0.01      9.11      0  02:05       0.000     0.000
  YS02001770              0.04     83.96      0  02:05       0.004     0.000
  YS02001779              0.21    832.85      0  02:02       0.346     0.000
  YS02001882              0.01     39.59      0  01:54       0.000     0.000
  YS02001890              0.20    513.86      0  02:01       0.178     0.000
  YS02001898              0.01      0.78      0  02:05       0.000     0.000
  YS02001907              0.38   2420.17      0  02:02       1.653     0.000
  YS02001910              0.01      0.33      0  02:05       0.000     0.000
  YS02001915              0.01     96.92      0  01:54       0.000     0.000
  YS02001918              0.01    260.96      0  01:57       0.003     0.000
  YS02001920              0.01     74.37      0  01:56       0.000     0.000
  YS02001923              0.01    297.21      0  01:56       0.001     0.000
  YS02001926              0.01    151.62      0  01:56       0.001     0.000
  YS02001929              0.01     93.99      0  01:56       0.000     0.000
  YS02006553              0.01      0.69      0  02:05       0.000     0.000
  YS02006556              0.01      0.26      0  02:05       0.000     0.000
  YS02006558              0.01     42.13      0  02:05       0.000     0.000
  YS02163601              0.01     30.16      0  02:05       0.000     0.000
  YS02164001              0.01      1.58      0  02:26       0.000     0.000
  
  
  **********************
  Storage Volume Summary
  **********************
  
  ------------------------------------------------------------------------------------------------
                         Average    Avg   Evap  Exfil     Maximum    Max    Time of Max    Maximum
                          Volume   Pcnt   Pcnt   Pcnt      Volume   Pcnt     Occurrence    Outflow
  Storage Unit           1000 m³   Full   Loss   Loss     1000 m³   Full    days hr:min        LPS
  ------------------------------------------------------------------------------------------------
  CC-storage               2.723   42.5    0.0    0.0       4.783   74.6       0  02:30    1783.53
  JK-storage               0.158   54.4    0.0    0.0       0.213   73.1       0  02:02    2300.00
  
  
  ***********************
  Outfall Loading Summary
  ***********************
  
  -----------------------------------------------------------
                         Flow       Avg       Max       Total
                         Freq      Flow      Flow      Volume
  Outfall Node           Pcnt       LPS       LPS    10^6 ltr
  -----------------------------------------------------------
  CC-1                  23.68    683.00    683.00       3.842
  CC-2                  16.92    683.00    683.00       2.842
  JK-1                  11.02   1000.00   1000.00       2.378
  JK-2                   2.10   1000.00   1000.00       0.352
  WSC                   99.96    249.94    554.28       5.383
  -----------------------------------------------------------
  System                30.74   3615.94   3366.23      14.797
  
  
  ********************
  Link Flow Summary
  ********************
  
  -----------------------------------------------------------------------------
                                 Maximum  Time of Max   Maximum    Max/    Max/
                                  |Flow|   Occurrence   |Veloc|    Full    Full
  Link                 Type          LPS  days hr:min     m/sec    Flow   Depth
  -----------------------------------------------------------------------------
  1                    CONDUIT    554.28     0  02:34      2.83    0.19    0.30
  WS02003060WS02003069 CONDUIT    552.44     0  02:33      1.64    0.22    0.34
  WS02003066WSF200     CONDUIT    535.90     0  02:32      2.85    0.09    0.22
  WS02003067WS02003066 CONDUIT    535.86     0  02:32      1.21    0.17    0.42
  WS02003069WS02003072 CONDUIT    552.62     0  02:33      1.37    0.27    0.39
  WS02003072WS02003073 CONDUIT    552.55     0  02:34      1.43    1.19    0.37
  WS02004401WS02004402 CONDUIT    537.03     0  02:28      0.98    0.64    0.86
  WS02004402WS02004403 CONDUIT    536.84     0  02:22      0.97    0.77    0.88
  WS02004403WS02004404 CONDUIT    536.67     0  02:29      0.92    0.39    0.93
  WS02004404WS02004405 CONDUIT    536.90     0  02:29      1.08    5.26    0.96
  WS02004405WS02004406 CONDUIT    536.94     0  02:29      0.99    1.06    0.96
  WS02004406WS02004407 CONDUIT    536.62     0  02:30      1.04    0.24    0.63
  WS02004407WS02004409 CONDUIT    536.41     0  02:30      1.57    0.19    0.48
  WS02004409WS02004410 CONDUIT    536.17     0  02:30      1.03    0.69    0.67
  WS02004410WS02004411 CONDUIT    536.11     0  02:30      0.94    0.73    0.69
  WS02004411WS02004412 CONDUIT    535.96     0  02:31      0.92    0.76    0.69
  WS02004412WS02004413 CONDUIT    536.04     0  02:31      0.82    0.36    0.78
  WS02004413WS02003067 CONDUIT    535.82     0  02:31      1.11    0.23    0.59
  WS02006109WS02006110 CONDUIT    560.85     0  02:34      1.12    1.08    1.00
  WS02006110WS02006113 CONDUIT    566.64     0  02:34      1.38    0.52    0.79
  WS02006111WS02006112 CONDUIT    543.39     0  03:34      1.81    0.26    0.67
  WS02006112WS02006115 CONDUIT    547.38     0  02:06      0.81    0.32    0.87
  WS02006113WS02006111 CONDUIT    563.54     0  03:34      2.47    0.68    0.46
  WS02006115WS02006116 CONDUIT    539.19     0  02:25      0.97    0.69    0.76
  WS02006116WS02004401 CONDUIT    537.89     0  02:22      0.98    0.74    0.84
  WS02006228WS02006109 CONDUIT    558.80     0  02:34      1.11    2.44    1.00
  WS02006229WS02006228 CONDUIT    558.08     0  02:34      1.14    1.85    1.00
  WS02006230WS02006229 CONDUIT    557.92     0  02:34      1.45   12.42    1.00
  WS02006231WS02006230 CONDUIT    629.15     0  02:36      1.71    9.54    1.00
  WS02006232WS02006231 CONDUIT    607.86     0  02:36      1.58    1.27    1.00
  WS02006234WS02006232 CONDUIT    601.96     0  02:36      1.56    1.22    1.00
  WS02006235WS02006234 CONDUIT    585.93     0  02:36      1.52    6.18    1.00
  WS02006238WS02006235 CONDUIT    424.60     0  02:35      1.56    0.95    1.00
  WS02006239WS02006238 CONDUIT    425.41     0  02:35      1.11    1.36    1.00
  WS02006240WS02006239 CONDUIT    424.41     0  02:35      1.24    1.34    1.00
  WS02006242WS02006240 CONDUIT    420.91     0  02:35      1.13    1.67    1.00
  WS02006243WS02006242 CONDUIT    421.20     0  03:15      1.40    0.90    1.00
  WS02006245WS02006243 CONDUIT    422.05     0  03:15      1.45    1.25    1.00
  WS02006247WS02006245 CONDUIT    423.30     0  03:15      1.43    3.36    1.00
  WS02006248WS02006247 CONDUIT    425.00     0  03:15      1.44    0.93    1.00
  WS02006249WS02006248 CONDUIT    426.57     0  03:15      1.36    2.34    1.00
  WS02006251WS02006249 CONDUIT    459.02     0  00:00      1.99    1.32    1.00
  WS02006252WS02006251 CONDUIT    407.56     0  01:58     24.61    1.50    1.00
  WS02006256WS02006235 CONDUIT    289.22     0  01:47      4.23    3.06    1.00
  WSF200WS02003060     CONDUIT    536.07     0  02:32      2.06    0.12    0.28
  YS02001580YS02001583 CONDUIT    136.96     0  01:53      0.71    0.53    1.00
  YS02001583YS02001586 CONDUIT    164.47     0  01:53      0.72    0.25    1.00
  YS02001586YS02001590 CONDUIT    345.05     0  02:05      1.25    0.60    1.00
  YS02001590YS02001593 CONDUIT    324.69     0  02:05      1.15    2.04    1.00
  YS02001593YS02001596 CONDUIT    318.02     0  02:07      1.75    0.50    1.00
  YS02001596YS02001600 CONDUIT    318.44     0  02:05      1.25    0.62    1.00
  YS02001600YS02001601 CONDUIT    318.46     0  02:26      1.13    0.55    1.00
  YS02001601YS02001602 CONDUIT    523.50     0  01:53      1.85    1.89    1.00
  YS02001602YS02001605 CONDUIT    523.43     0  01:53      1.85   11.08    1.00
  YS02001605YS02001607 CONDUIT    523.04     0  01:53      1.85    2.87    1.00
  YS02001607YS02001610 CONDUIT    536.39     0  01:52      0.68    0.51    1.00
  YS02001610YS02001613 CONDUIT    542.66     0  01:52      0.69    0.63    1.00
  YS02001613YS02001616 CONDUIT    543.44     0  01:52      0.70    0.47    1.00
  YS02001616YS02001619 CONDUIT    541.70     0  02:03      0.69    0.94    1.00
  YS02001619YS02001622 CONDUIT   1022.35     0  02:02      1.30    1.51    1.00
  YS02001622YS02001625 CONDUIT   1022.15     0  02:03      1.30    0.55    1.00
  YS02001625YS02001629 CONDUIT    924.40     0  01:53      1.19    0.44    1.00
  YS02001629YS02163301 CONDUIT    923.19     0  01:55      1.18    1.14    1.00
  YS02001633YS02163601 CONDUIT   1369.86     0  01:55      1.74    1.44    1.00
  YS02001641YS02001644 CONDUIT   1367.23     0  01:55      1.74    4.42    1.00
  YS02001644YS02001647 CONDUIT   1781.61     0  01:55      2.28    1.05    1.00
  YS02001647YS02001649 CONDUIT   1802.65     0  01:55      2.33    0.95    1.00
  YS02001649YS02001757 CONDUIT   1984.71     0  01:56      2.53    1.20    1.00
  YS02001652YS02001649 CONDUIT   1087.95     0  02:01      1.39    0.54    1.00
  YS02001655YS02001652 CONDUIT   1087.98     0  02:01      1.39    0.53    1.00
  YS02001658YS02001655 CONDUIT   1087.50     0  02:01      1.92    0.46    1.00
  YS02001661YS02001658 CONDUIT   1088.03     0  02:01      2.33    0.43    1.00
  YS02001664YS02001661 CONDUIT   1085.88     0  02:01      2.32    0.34    0.87
  YS02001745YS02001748 CONDUIT    700.84     0  02:01      2.19    0.27    0.96
  YS02001748YS02001751 CONDUIT    700.56     0  02:01      1.71    0.35    1.00
  YS02001751YS02001754 CONDUIT    700.84     0  02:01      1.48    0.34    1.00
  YS02001754YS02001757 CONDUIT    701.97     0  02:01      0.89    0.28    1.00
  YS02001757CaochengTiaoxuchi CONDUIT   3400.17     0  02:00      4.33    1.47    1.00
  YS02001759YS02001757 CONDUIT   1434.51     0  02:00      1.83    1.02    1.00
  YS02001762YS02001759 CONDUIT    762.03     0  01:57      0.97    0.88    1.00
  YS02001765YS02001762 CONDUIT    761.86     0  01:57      0.97    0.71    1.00
  YS02001767YS02001765 CONDUIT    763.81     0  01:57      0.97    0.96    1.00
  YS02001770YS02001767 CONDUIT    762.98     0  01:57      0.97    3.02    1.00
  YS02001774YS02001770 CONDUIT    832.90     0  02:02      1.06    0.53    1.00
  YS02001779YS02001774 CONDUIT    833.36     0  02:02      1.06    0.42    1.00
  YS02001783YS02001784 CONDUIT   1170.72     0  01:59      2.33    1.61    1.00
  YS02001784YS02001785 CONDUIT   1171.85     0  01:59      2.33    2.73    1.00
  YS02001786YS02001788 CONDUIT   1171.92     0  01:59      2.49    2.26    0.89
  YS02001788YS02001790 CONDUIT   1182.89     0  02:00      2.72    0.87    0.84
  YS02001790YS02001791 CONDUIT   1291.49     0  01:58      3.43    1.41    0.71
  YS02001791YS02001793 CONDUIT   1244.21     0  02:05      6.77    0.53    0.45
  YS02001793JiankangQianchi CONDUIT   1244.07     0  01:58      2.50    0.10    0.65
  YS02001882YS02001884 CONDUIT     74.54     0  01:54      0.13    0.09    1.00
  YS02001884YS02001887 CONDUIT     79.90     0  01:54      0.10    0.11    1.00
  YS02001887YS02001890 CONDUIT   1028.92     0  02:01      1.31    1.76    1.00
  YS02001890YS02001895 CONDUIT    519.21     0  02:04      0.66    0.24    1.00
  YS02001895YS02001898 CONDUIT    518.55     0  02:04      0.66    0.90    1.00
  YS02001898YS02001901 CONDUIT    523.18     0  02:05      0.67    0.34    1.00
  YS02001901YS02001904 CONDUIT    518.86     0  02:05      0.66    0.80    1.00
  YS02001904YS02001907 CONDUIT    526.28     0  02:05      0.67    0.18    1.00
  YS02001907YS02006553 CONDUIT    805.81     0  02:21      0.90    0.95    1.00
  YS02001910YS02001907 CONDUIT   1725.14     0  02:02      2.20    0.97    1.00
  YS02001915YS02001910 CONDUIT   1724.53     0  02:02      2.20    0.86    1.00
  YS02001918YS02001915 CONDUIT    569.18     0  02:02      0.72    0.31    1.00
  YS02001920YS02001918 CONDUIT    568.28     0  02:02      0.72    0.55    1.00
  YS02001923YS02001920 CONDUIT    563.89     0  02:02      0.72    0.25    1.00
  YS02001926YS02001923 CONDUIT    565.45     0  02:02      0.96    0.81    1.00
  YS02001929YS02001926 CONDUIT    565.36     0  02:02      1.14    0.27    1.00
  YS02006553YS02006556 CONDUIT    805.57     0  02:21      1.03    0.69    1.00
  YS02006556YS02006558 CONDUIT    807.84     0  02:21      1.03    0.64    1.00
  YS02006558YS02006561 CONDUIT   1174.33     0  01:56      4.15    2.60    1.00
  YS02006561YS02001783 CONDUIT   1170.42     0  01:59      2.33    0.61    1.00
  YS02163301YS02001633 CONDUIT    923.16     0  01:55      1.18    0.87    1.00
  YS02163601YS02164001 CONDUIT   1369.28     0  01:55      1.74    1.21    1.00
  YS02164001YS02001641 CONDUIT   1368.05     0  01:55      1.74    1.87    1.00
  CC-R1                PUMP       683.00     0  00:00              1.00
  CC-R2                PUMP       683.00     0  00:00              1.00
  CC-S1                PUMP       200.00     0  00:00              1.00
  CC-S2                PUMP       200.00     0  00:00              1.00
  JK-R1                PUMP      1000.00     0  00:00              1.00
  JK-R2                PUMP      1000.00     0  00:00              1.00
  JK-S                 PUMP       300.00     0  00:00              1.00
  
  
  ***************************
  Flow Classification Summary
  ***************************
  
  -------------------------------------------------------------------------------------
                      Adjusted    ---------- Fraction of Time in Flow Class ---------- 
                       /Actual         Up    Down  Sub   Sup   Up    Down  Norm  Inlet 
  Conduit               Length    Dry  Dry   Dry   Crit  Crit  Crit  Crit  Ltd   Ctrl  
  -------------------------------------------------------------------------------------
  1                       1.00   0.00  0.00  0.00  0.00  1.00  0.00  0.00  0.52  0.00
  WS02003060WS02003069    1.00   0.00  0.00  0.00  0.98  0.02  0.00  0.00  0.70  0.00
  WS02003066WSF200        1.00   0.13  0.00  0.00  0.00  0.87  0.00  0.00  0.77  0.00
  WS02003067WS02003066    1.00   0.10  0.02  0.00  0.88  0.00  0.00  0.00  0.00  0.00
  WS02003069WS02003072    1.00   0.00  0.00  0.00  0.99  0.01  0.00  0.00  0.72  0.00
  WS02003072WS02003073    1.00   0.00  0.00  0.00  0.00  0.00  0.00  1.00  0.00  0.00
  WS02004401WS02004402    1.00   0.02  0.00  0.00  0.98  0.00  0.00  0.00  0.00  0.00
  WS02004402WS02004403    1.00   0.02  0.00  0.00  0.97  0.00  0.00  0.00  0.00  0.00
  WS02004403WS02004404    1.00   0.00  0.03  0.00  0.97  0.00  0.00  0.00  0.00  0.00
  WS02004404WS02004405    1.00   0.00  0.00  0.00  1.00  0.00  0.00  0.00  0.01  0.00
  WS02004405WS02004406    1.00   0.00  0.00  0.00  1.00  0.00  0.00  0.00  0.00  0.00
  WS02004406WS02004407    1.00   0.00  0.05  0.00  0.95  0.00  0.00  0.00  0.00  0.00
  WS02004407WS02004409    1.00   0.05  0.00  0.00  0.94  0.01  0.00  0.00  0.94  0.00
  WS02004409WS02004410    1.00   0.05  0.00  0.00  0.95  0.00  0.00  0.00  0.03  0.00
  WS02004410WS02004411    1.00   0.05  0.00  0.00  0.95  0.00  0.00  0.00  0.01  0.00
  WS02004411WS02004412    1.00   0.05  0.00  0.00  0.95  0.00  0.00  0.00  0.00  0.00
  WS02004412WS02004413    1.00   0.05  0.00  0.00  0.94  0.00  0.00  0.00  0.01  0.00
  WS02004413WS02003067    1.00   0.06  0.04  0.00  0.00  0.00  0.90  0.00  0.00  0.00
  WS02006109WS02006110    1.00   0.00  0.01  0.00  0.98  0.00  0.01  0.00  0.00  0.00
  WS02006110WS02006113    1.00   0.01  0.01  0.00  0.98  0.00  0.00  0.00  0.00  0.00
  WS02006111WS02006112    1.00   0.02  0.00  0.00  0.98  0.00  0.00  0.00  0.98  0.00
  WS02006112WS02006115    1.00   0.02  0.00  0.00  0.97  0.00  0.00  0.00  0.00  0.00
  WS02006113WS02006111    1.00   0.02  0.00  0.00  0.00  0.98  0.00  0.00  0.14  0.00
  WS02006115WS02006116    1.00   0.02  0.00  0.00  0.97  0.00  0.00  0.01  0.00  0.00
  WS02006116WS02004401    1.00   0.02  0.00  0.00  0.98  0.00  0.00  0.00  0.00  0.00
  WS02006228WS02006109    1.00   0.00  0.00  0.00  1.00  0.00  0.00  0.00  0.00  0.00
  WS02006229WS02006228    1.00   0.00  0.00  0.00  0.99  0.00  0.00  0.01  0.00  0.00
  WS02006230WS02006229    1.00   0.00  0.00  0.00  0.99  0.00  0.00  0.01  0.00  0.00
  WS02006231WS02006230    1.00   0.00  0.00  0.00  0.28  0.00  0.72  0.00  0.00  0.00
  WS02006232WS02006231    1.00   0.00  0.00  0.00  0.99  0.00  0.01  0.00  0.00  0.00
  WS02006234WS02006232    1.00   0.00  0.00  0.00  1.00  0.00  0.00  0.00  0.25  0.00
  WS02006235WS02006234    1.00   0.00  0.00  0.00  0.70  0.00  0.29  0.00  0.00  0.00
  WS02006238WS02006235    1.00   0.00  0.00  0.00  1.00  0.00  0.00  0.00  0.00  0.00
  WS02006239WS02006238    1.00   0.00  0.00  0.00  1.00  0.00  0.00  0.00  0.35  0.00
  WS02006240WS02006239    1.00   0.00  0.00  0.00  0.60  0.00  0.00  0.40  0.03  0.00
  WS02006242WS02006240    1.00   0.00  0.00  0.00  0.99  0.00  0.01  0.00  0.00  0.00
  WS02006243WS02006242    1.00   0.00  0.00  0.00  0.98  0.00  0.00  0.01  0.52  0.00
  WS02006245WS02006243    1.00   0.00  0.00  0.00  0.66  0.00  0.00  0.34  0.01  0.00
  WS02006247WS02006245    1.00   0.00  0.00  0.00  0.98  0.00  0.00  0.01  0.00  0.00
  WS02006248WS02006247    1.00   0.00  0.00  0.00  0.99  0.00  0.00  0.01  0.23  0.00
  WS02006249WS02006248    1.00   0.00  0.00  0.00  0.47  0.00  0.53  0.00  0.00  0.00
  WS02006251WS02006249    1.00   0.00  0.00  0.00  1.00  0.00  0.00  0.00  0.55  0.00
  WS02006252WS02006251    1.00   0.00  0.57  0.00  0.11  0.00  0.31  0.00  0.00  0.00
  WS02006256WS02006235    1.00   0.00  0.00  0.00  1.00  0.00  0.00  0.00  0.00  0.00
  WSF200WS02003060        1.00   0.00  0.13  0.00  0.33  0.55  0.00  0.00  0.49  0.00
  YS02001580YS02001583    1.00   0.23  0.57  0.00  0.20  0.00  0.00  0.00  0.66  0.00
  YS02001583YS02001586    1.00   0.42  0.32  0.00  0.25  0.00  0.00  0.00  0.66  0.00
  YS02001586YS02001590    1.00   0.13  0.00  0.00  0.43  0.04  0.00  0.40  0.36  0.00
  YS02001590YS02001593    1.00   0.13  0.01  0.00  0.12  0.00  0.74  0.00  0.00  0.00
  YS02001593YS02001596    1.00   0.13  0.00  0.00  0.14  0.01  0.00  0.72  0.02  0.00
  YS02001596YS02001600    1.00   0.14  0.00  0.00  0.20  0.01  0.00  0.65  0.04  0.00
  YS02001600YS02001601    1.00   0.13  0.01  0.00  0.86  0.00  0.00  0.00  0.60  0.00
  YS02001601YS02001602    1.00   0.13  0.01  0.00  0.87  0.00  0.00  0.00  0.00  0.00
  YS02001602YS02001605    1.00   0.14  0.00  0.00  0.86  0.00  0.00  0.00  0.00  0.00
  YS02001605YS02001607    1.00   0.14  0.00  0.00  0.86  0.00  0.00  0.00  0.00  0.00
  YS02001607YS02001610    1.00   0.13  0.01  0.00  0.86  0.00  0.00  0.00  0.01  0.00
  YS02001610YS02001613    1.00   0.13  0.00  0.00  0.87  0.00  0.00  0.00  0.00  0.00
  YS02001613YS02001616    1.00   0.13  0.00  0.00  0.87  0.00  0.00  0.00  0.00  0.00
  YS02001616YS02001619    1.00   0.13  0.00  0.00  0.87  0.00  0.00  0.00  0.00  0.00
  YS02001619YS02001622    1.00   0.13  0.00  0.00  0.87  0.00  0.00  0.00  0.29  0.00
  YS02001622YS02001625    1.00   0.13  0.00  0.00  0.87  0.00  0.00  0.00  0.04  0.00
  YS02001625YS02001629    1.00   0.13  0.05  0.00  0.17  0.00  0.66  0.00  0.00  0.00
  YS02001629YS02163301    1.00   0.15  0.01  0.00  0.84  0.00  0.00  0.00  0.00  0.00
  YS02001633YS02163601    1.00   0.00  0.01  0.00  0.99  0.00  0.00  0.00  0.15  0.00
  YS02001641YS02001644    1.00   0.00  0.01  0.00  0.99  0.00  0.00  0.00  0.00  0.00
  YS02001644YS02001647    1.00   0.00  0.17  0.00  0.83  0.00  0.00  0.00  0.00  0.00
  YS02001647YS02001649    1.00   0.00  0.17  0.00  0.56  0.27  0.00  0.00  0.56  0.00
  YS02001649YS02001757    1.00   0.00  0.00  0.00  0.86  0.14  0.00  0.00  0.44  0.00
  YS02001652YS02001649    1.00   0.00  0.00  0.00  0.96  0.03  0.00  0.00  0.73  0.00
  YS02001655YS02001652    1.00   0.00  0.00  0.00  0.19  0.01  0.00  0.80  0.05  0.00
  YS02001658YS02001655    1.00   0.00  0.14  0.00  0.67  0.19  0.00  0.00  0.68  0.00
  YS02001661YS02001658    1.00   0.14  0.00  0.00  0.51  0.35  0.00  0.00  0.68  0.00
  YS02001664YS02001661    1.00   0.13  0.00  0.00  0.78  0.09  0.00  0.00  0.85  0.00
  YS02001745YS02001748    1.00   0.00  0.00  0.00  0.11  0.01  0.00  0.88  0.05  0.00
  YS02001748YS02001751    1.00   0.00  0.00  0.00  0.84  0.16  0.00  0.00  0.76  0.00
  YS02001751YS02001754    1.00   0.00  0.00  0.00  0.18  0.00  0.00  0.82  0.04  0.00
  YS02001754YS02001757    1.00   0.00  0.00  0.00  1.00  0.00  0.00  0.00  0.80  0.00
  YS02001757CaochengTiaoxuchi    1.00   0.00  0.00  0.00  1.00  0.00  0.00  0.00  0.58  0.00
  YS02001759YS02001757    1.00   0.00  0.00  0.00  1.00  0.00  0.00  0.00  0.52  0.00
  YS02001762YS02001759    1.00   0.00  0.00  0.00  1.00  0.00  0.00  0.00  0.05  0.00
  YS02001765YS02001762    1.00   0.00  0.00  0.00  1.00  0.00  0.00  0.00  0.66  0.00
  YS02001767YS02001765    1.00   0.00  0.00  0.00  1.00  0.00  0.00  0.00  0.01  0.00
  YS02001770YS02001767    1.00   0.00  0.00  0.00  1.00  0.00  0.00  0.00  0.00  0.00
  YS02001774YS02001770    1.00   0.00  0.13  0.00  0.70  0.00  0.17  0.00  0.03  0.00
  YS02001779YS02001774    1.00   0.00  0.00  0.00  1.00  0.00  0.00  0.00  0.76  0.00
  YS02001783YS02001784    1.00   0.00  0.18  0.00  0.82  0.00  0.00  0.00  0.56  0.00
  YS02001784YS02001785    1.00   0.00  0.00  0.00  1.00  0.00  0.00  0.00  0.17  0.00
  YS02001786YS02001788    1.00   0.00  0.00  0.00  0.80  0.20  0.00  0.00  0.00  0.00
  YS02001788YS02001790    1.00   0.00  0.00  0.00  0.21  0.79  0.00  0.00  0.81  0.00
  YS02001790YS02001791    1.00   0.00  0.00  0.00  0.01  0.99  0.00  0.00  0.16  0.00
  YS02001791YS02001793    1.00   0.00  0.00  0.00  0.00  1.00  0.00  0.00  0.01  0.00
  YS02001793JiankangQianchi    1.00   0.00  0.00  0.00  0.98  0.01  0.00  0.00  0.95  0.00
  YS02001882YS02001884    1.00   0.15  0.01  0.00  0.84  0.00  0.00  0.00  0.00  0.00
  YS02001884YS02001887    1.00   0.06  0.05  0.00  0.89  0.00  0.00  0.00  0.00  0.00
  YS02001887YS02001890    1.00   0.00  0.00  0.00  0.97  0.00  0.03  0.00  0.00  0.00
  YS02001890YS02001895    1.00   0.00  0.16  0.00  0.83  0.00  0.00  0.00  0.00  0.00
  YS02001895YS02001898    1.00   0.17  0.00  0.00  0.82  0.00  0.02  0.00  0.00  0.00
  YS02001898YS02001901    1.00   0.17  0.00  0.00  0.83  0.00  0.00  0.00  0.01  0.00
  YS02001901YS02001904    1.00   0.17  0.00  0.00  0.83  0.00  0.00  0.00  0.00  0.00
  YS02001904YS02001907    1.00   0.00  0.16  0.00  0.83  0.00  0.00  0.00  0.00  0.00
  YS02001907YS02006553    1.00   0.00  0.02  0.00  0.98  0.00  0.00  0.00  0.00  0.00
  YS02001910YS02001907    1.00   0.00  0.00  0.00  0.97  0.00  0.00  0.03  0.12  0.00
  YS02001915YS02001910    1.00   0.00  0.00  0.00  0.97  0.03  0.00  0.00  0.16  0.00
  YS02001918YS02001915    1.00   0.00  0.01  0.00  0.98  0.02  0.00  0.00  0.75  0.00
  YS02001920YS02001918    1.00   0.00  0.01  0.00  0.99  0.00  0.00  0.00  0.00  0.00
  YS02001923YS02001920    1.00   0.00  0.00  0.00  1.00  0.00  0.00  0.00  0.92  0.00
  YS02001926YS02001923    1.00   0.00  0.07  0.00  0.06  0.00  0.86  0.00  0.00  0.00
  YS02001929YS02001926    1.00   0.00  0.13  0.00  0.87  0.00  0.00  0.00  0.82  0.00
  YS02006553YS02006556    1.00   0.01  0.00  0.00  0.99  0.00  0.00  0.00  0.03  0.00
  YS02006556YS02006558    1.00   0.00  0.00  0.00  1.00  0.00  0.00  0.00  0.00  0.00
  YS02006558YS02006561    1.00   0.18  0.00  0.00  0.06  0.76  0.00  0.00  0.18  0.00
  YS02006561YS02001783    1.00   0.18  0.00  0.00  0.09  0.73  0.00  0.00  0.68  0.00
  YS02163301YS02001633    1.00   0.00  0.15  0.00  0.85  0.00  0.00  0.00  0.00  0.00
  YS02163601YS02164001    1.00   0.00  0.08  0.00  0.92  0.00  0.00  0.00  0.00  0.00
  YS02164001YS02001641    1.00   0.01  0.07  0.00  0.92  0.00  0.00  0.00  0.06  0.00
  
  
  *************************
  Conduit Surcharge Summary
  *************************
  
  ----------------------------------------------------------------------------
                                                           Hours        Hours 
                         --------- Hours Full --------   Above Full   Capacity
  Conduit                Both Ends  Upstream  Dnstream   Normal Flow   Limited
  ----------------------------------------------------------------------------
  WS02003072WS02003073        0.01      0.01      0.01      1.21         0.01
  WS02004404WS02004405        0.01      0.01      0.01      3.46         0.01
  WS02004405WS02004406        0.01      0.01      0.01      0.63         0.01
  WS02006109WS02006110        0.66      0.66      2.16      0.79         0.01
  WS02006110WS02006113        0.01      0.01      2.15      0.01         0.01
  WS02006111WS02006112        0.01      0.01      2.26      0.01         0.01
  WS02006112WS02006115        0.01      0.01      0.74      0.01         0.01
  WS02006228WS02006109        2.13      2.17      2.13      2.42         2.13
  WS02006229WS02006228        2.12      2.13      2.12      2.28         2.11
  WS02006230WS02006229        2.22      2.25      2.22      4.21         2.22
  WS02006231WS02006230        0.67      0.67      0.88      3.84         0.01
  WS02006232WS02006231        0.82      0.82      2.17      0.88         0.01
  WS02006234WS02006232        2.05      2.05      2.17      0.86         0.86
  WS02006235WS02006234        1.18      1.18      2.07      3.58         0.02
  WS02006238WS02006235        2.10      2.10      2.17      0.01         0.01
  WS02006239WS02006238        2.11      2.13      2.13      2.08         1.87
  WS02006240WS02006239        2.05      2.08      2.09      2.09         1.78
  WS02006242WS02006240        2.07      2.07      2.14      2.19         0.01
  WS02006243WS02006242        2.06      2.06      2.11      0.01         0.05
  WS02006245WS02006243        2.05      2.05      2.05      1.37         1.40
  WS02006247WS02006245        2.05      2.05      2.05      3.34         2.03
  WS02006248WS02006247        2.05      2.05      2.05      0.01         0.06
  WS02006249WS02006248        2.04      2.04      2.04      3.30         0.01
  WS02006251WS02006249        2.04      2.04      2.04      2.13         1.97
  WS02006252WS02006251        2.16      2.16      2.16      2.16         0.01
  WS02006256WS02006235        3.63      3.67      5.16      1.28         0.01
  YS02001580YS02001583        0.66      0.66      0.71      0.01         0.01
  YS02001583YS02001586        0.67      0.67      0.79      0.01         0.01
  YS02001586YS02001590        0.80      0.80      0.86      0.01         0.01
  YS02001590YS02001593        0.86      0.86      0.88      0.91         0.01
  YS02001593YS02001596        0.87      0.87      0.97      0.01         0.01
  YS02001596YS02001600        1.02      1.02      1.12      0.01         0.01
  YS02001600YS02001601        1.18      1.18      1.45      0.01         0.01
  YS02001601YS02001602        1.35      1.35      1.48      1.11         0.01
  YS02001602YS02001605        1.31      1.31      1.35      2.26         0.01
  YS02001605YS02001607        1.27      1.31      1.27      1.41         1.27
  YS02001607YS02001610        0.85      0.85      0.87      0.01         0.01
  YS02001610YS02001613        0.84      0.84      0.87      0.01         0.01
  YS02001613YS02001616        0.80      0.80      0.84      0.01         0.01
  YS02001616YS02001619        0.79      0.79      0.80      0.01         0.05
  YS02001619YS02001622        0.78      0.79      0.78      0.85         0.74
  YS02001622YS02001625        0.78      0.78      0.97      0.01         0.01
  YS02001625YS02001629        0.74      0.74      0.97      0.01         0.01
  YS02001629YS02163301        0.97      0.97      0.98      0.09         0.14
  YS02001633YS02163601        0.99      0.99      1.03      0.32         0.29
  YS02001641YS02001644        0.92      0.94      0.92      1.51         0.91
  YS02001644YS02001647        0.72      0.72      0.92      0.03         0.01
  YS02001647YS02001649        0.72      0.72      0.85      0.01         0.01
  YS02001649YS02001757        0.84      0.85      0.92      0.07         0.03
  YS02001652YS02001649        0.67      0.67      0.85      0.01         0.01
  YS02001655YS02001652        0.48      0.48      0.65      0.01         0.01
  YS02001658YS02001655        0.27      0.27      0.48      0.01         0.01
  YS02001661YS02001658        0.09      0.09      0.27      0.01         0.01
  YS02001664YS02001661        0.01      0.01      0.14      0.01         0.01
  YS02001745YS02001748        0.01      0.01      0.21      0.01         0.01
  YS02001748YS02001751        0.25      0.25      0.35      0.01         0.01
  YS02001751YS02001754        0.35      0.35      0.55      0.01         0.01
  YS02001754YS02001757        0.59      0.59      0.92      0.01         0.01
  YS02001757CaochengTiaoxuchi        0.92      0.92      2.00      0.39         0.37
  YS02001759YS02001757        0.82      0.82      0.92      0.03         0.05
  YS02001762YS02001759        0.78      0.78      0.82      0.01         0.02
  YS02001765YS02001762        0.74      0.74      0.78      0.01         0.01
  YS02001767YS02001765        0.71      0.71      0.74      0.01         0.02
  YS02001770YS02001767        0.70      0.70      0.71      0.56         0.48
  YS02001774YS02001770        0.67      0.67      0.76      0.01         0.01
  YS02001779YS02001774        0.54      0.54      0.76      0.01         0.01
  YS02001783YS02001784        0.54      0.57      0.54      0.71         0.54
  YS02001784YS02001785        0.44      0.54      0.44      0.94         0.44
  YS02001786YS02001788        0.01      0.44      0.01      0.81         0.01
  YS02001790YS02001791        0.01      0.01      0.01      0.53         0.01
  YS02001793JiankangQianchi        0.01      0.01      7.70      0.01         0.01
  YS02001882YS02001884        0.52      0.52      0.53      0.01         0.01
  YS02001884YS02001887        0.55      0.55      0.56      0.01         0.01
  YS02001887YS02001890        0.57      0.57      0.59      0.16         0.01
  YS02001890YS02001895        0.51      0.51      0.60      0.01         0.01
  YS02001895YS02001898        0.50      0.50      0.51      0.01         0.01
  YS02001898YS02001901        0.51      0.51      0.55      0.01         0.01
  YS02001901YS02001904        0.54      0.54      0.55      0.01         0.01
  YS02001904YS02001907        0.54      0.54      0.79      0.01         0.01
  YS02001907YS02006553        0.95      0.95      1.01      0.01         0.01
  YS02001910YS02001907        0.60      0.60      0.77      0.01         0.01
  YS02001915YS02001910        0.51      0.51      0.60      0.01         0.01
  YS02001918YS02001915        0.43      0.43      0.51      0.01         0.01
  YS02001920YS02001918        0.43      0.43      0.44      0.01         0.01
  YS02001923YS02001920        0.39      0.39      0.44      0.01         0.01
  YS02001926YS02001923        0.16      0.16      0.18      0.01         0.01
  YS02001929YS02001926        0.02      0.02      0.18      0.01         0.01
  YS02006553YS02006556        0.68      0.68      0.79      0.01         0.01
  YS02006556YS02006558        0.74      0.74      0.81      0.01         0.01
  YS02006558YS02006561        0.47      0.67      0.47      0.89         0.47
  YS02006561YS02001783        0.40      0.40      0.57      0.01         0.01
  YS02163301YS02001633        0.98      0.98      1.01      0.01         0.01
  YS02163601YS02164001        0.95      0.95      1.03      0.06         0.01
  YS02164001YS02001641        0.94      0.95      0.94      0.69         0.64
  
  
  ***************
  Pumping Summary
  ***************
  
  ---------------------------------------------------------------------------------------------------------
                                                  Min       Avg       Max     Total     Power    % Time Off
                        Percent   Number of      Flow      Flow      Flow    Volume     Usage    Pump Curve
  Pump                 Utilized   Start-Ups       LPS       LPS       LPS  10^6 ltr     Kw-hr    Low   High
  ---------------------------------------------------------------------------------------------------------
  CC-R1                   19.52           3      0.00    683.00    683.00     3.840     72.35    0.0   11.0
  CC-R2                   14.44           3      0.00    683.00    683.00     2.841     54.10    0.0    7.6
  CC-S1                   42.51           4      0.00    200.00    200.00     2.449     13.98    0.0    0.0
  CC-S2                   27.02           2      0.00    200.00    200.00     1.556      8.60    0.0    0.0
  JK-R1                    8.25          11      0.00   1000.00   1000.00     2.377     26.26    0.0    0.0
  JK-R2                    1.22           3      0.00   1000.00   1000.00     0.351      2.92    0.0    0.0
  JK-S                    15.95          17      0.00    300.00    300.00     1.378     19.82    0.0    0.0
  

  Analysis begun on:  Tue Apr 15 14:19:08 2025
  Analysis ended on:  Tue Apr 15 14:19:09 2025
  Total elapsed time: 00:00:01