
  EPA STORM WATER MANAGEMENT MODEL - VERSION 5.2 (Build 5.2.4)
  PYSWMM TOOLKIT API - VERSION v1.0 (2023-11-27)
  ------------------------------------------------------------

  WARNING 04: minimum elevation drop used for Conduit WS02004404WS02004405
  WARNING 03: negative offset ignored for Link YS02001904YS02001907
  
  ****************
  Analysis Options
  ****************
  Flow Units ............... LPS
  Process Models:
    Rainfall/Runoff ........ YES
    RDII ................... NO
    Snowmelt ............... NO
    Groundwater ............ NO
    Flow Routing ........... YES
    Ponding Allowed ........ NO
    Water Quality .......... NO
  Infiltration Method ...... HORTON
  Flow Routing Method ...... DYNWAVE
  Surcharge Method ......... EXTRAN
  Starting Date ............ 08/28/2015 08:00:00
  Ending Date .............. 08/28/2015 16:00:00
  Antecedent Dry Days ...... 8.0
  Report Time Step ......... 00:01:00
  Wet Time Step ............ 00:01:00
  Dry Time Step ............ 00:01:00
  Routing Time Step ........ 30.00 sec
  Variable Time Step ....... YES
  Maximum Trials ........... 8
  Number of Threads ........ 4
  Head Tolerance ........... 0.001500 m
  
  
  **************************        Volume         Depth
  Runoff Quantity Continuity     hectare-m            mm
  **************************     ---------       -------
  Total Precipitation ......         2.430        73.262
  Evaporation Loss .........         0.000         0.000
  Infiltration Loss ........         0.099         2.995
  Surface Runoff ...........         2.298        69.293
  Final Storage ............         0.033         0.994
  Continuity Error (%) .....        -0.028
  
  
  **************************        Volume        Volume
  Flow Routing Continuity        hectare-m      10^6 ltr
  **************************     ---------     ---------
  Dry Weather Inflow .......         0.025         0.251
  Wet Weather Inflow .......         2.299        22.986
  Groundwater Inflow .......         0.000         0.000
  RDII Inflow ..............         0.000         0.000
  External Inflow ..........         0.083         0.834
  External Outflow .........         1.521        15.206
  Flooding Loss ............         0.857         8.569
  Evaporation Loss .........         0.000         0.000
  Exfiltration Loss ........         0.000         0.000
  Initial Stored Volume ....         0.243         2.431
  Final Stored Volume ......         0.277         2.772
  Continuity Error (%) .....        -0.172
  
  
  *************************
  Highest Continuity Errors
  *************************
  Node YS02001583 (-7.77%)
  Node YS02001884 (4.91%)
  
  
  ***************************
  Time-Step Critical Elements
  ***************************
  Link WS02006252WS02006251 (45.78%)
  Link WS02004404WS02004405 (15.14%)
  Link WS02006238WS02006235 (10.11%)
  Link YS02001791YS02001793 (7.29%)
  Link WS02006235WS02006234 (5.26%)
  
  
  ********************************
  Highest Flow Instability Indexes
  ********************************
  Link WS02006113WS02006111 (43)
  Link WS02006111WS02006112 (24)
  Link WS02006252WS02006251 (17)
  Link WS02006238WS02006235 (14)
  Link YS02001602YS02001605 (13)
  
  
  *********************************
  Most Frequent Nonconverging Nodes
  *********************************
  Node CC-1 (15.53%)
  Node CC-2 (15.53%)
  Node JK-1 (15.53%)
  Node JK-2 (15.53%)
  Node WSC (15.53%)
  
  
  *************************
  Routing Time Step Summary
  *************************
  Minimum Time Step           :     0.00 sec
  Average Time Step           :     2.03 sec
  Maximum Time Step           :     6.43 sec
  % of Time in Steady State   :     0.00
  Average Iterations per Step :     3.27
  % of Steps Not Converging   :    15.53
  Time Step Frequencies       :
     30.000 - 13.228 sec      :     0.00 %
     13.228 -  5.833 sec      :     8.33 %
      5.833 -  2.572 sec      :    21.10 %
      2.572 -  1.134 sec      :    18.57 %
      1.134 -  0.500 sec      :    52.00 %
  
  
  ***************************
  Subcatchment Runoff Summary
  ***************************
  
  ------------------------------------------------------------------------------------------------------------------------------
                            Total      Total      Total      Total     Imperv       Perv      Total       Total     Peak  Runoff
                           Precip      Runon       Evap      Infil     Runoff     Runoff     Runoff      Runoff   Runoff   Coeff
  Subcatchment                 mm         mm         mm         mm         mm         mm         mm    10^6 ltr      LPS
  ------------------------------------------------------------------------------------------------------------------------------
  sub60                     73.26       0.00       0.00       1.81      63.28       6.98      70.26        0.92   677.23   0.959
  sub61                     73.26       0.00       0.00       2.62      59.68       9.84      69.52        1.28   938.08   0.949
  sub62                     73.26       0.00       0.00       1.21      66.12       4.66      70.78        1.94  1302.61   0.966
  sub63                     73.26       0.00       0.00       4.82      51.05      16.44      67.49        1.53  1035.80   0.921
  sub64                     73.26       0.00       0.00       2.44      61.07       8.56      69.63        1.67  1057.22   0.950
  sub65                     73.26       0.00       0.00       2.11      62.49       7.42      69.91        1.92  1177.30   0.954
  sub66                     73.26       0.00       0.00       5.94      50.94      15.30      66.25        3.09  1511.84   0.904
  sub67                     73.26       0.00       0.00       1.17      66.17       4.70      70.86        1.32  1021.12   0.967
  sub68                     73.26       0.00       0.00       2.17      61.83       8.09      69.91        1.92  1342.68   0.954
  sub69                     73.26       0.00       0.00       1.92      62.17       9.07      71.23        2.64  1567.79   0.972
  sub70                     73.26       0.00       0.00       6.41      48.19      18.50      66.69        1.93   847.09   0.910
  sub71                     73.26       0.00       0.00       1.24      66.08       4.63      70.71        1.85  1143.15   0.965
  sub72                     73.26       0.00       0.00       1.10      66.74       4.03      70.77        0.97   547.41   0.966
  
  
  ******************
  Node Depth Summary
  ******************
  
  ---------------------------------------------------------------------------------
                                 Average  Maximum  Maximum  Time of Max    Reported
                                   Depth    Depth      HGL   Occurrence   Max Depth
  Node                 Type       Meters   Meters   Meters  days hr:min      Meters
  ---------------------------------------------------------------------------------
  WS02003060           JUNCTION     0.24     0.38     5.31     0  02:16        0.38
  WS02003066           JUNCTION     0.19     0.30     5.85     0  02:18        0.30
  WS02003067           JUNCTION     0.50     0.70     6.02     0  02:17        0.70
  WS02003069           JUNCTION     0.26     0.43     5.01     0  02:19        0.43
  WS02003072           JUNCTION     0.32     0.50     4.87     0  02:19        0.50
  WS02003073           JUNCTION     0.18     0.30     4.36     0  02:20        0.30
  WS02004401           JUNCTION     0.58     0.85     6.85     0  02:15        0.85
  WS02004402           JUNCTION     0.61     0.87     6.83     0  02:16        0.87
  WS02004403           JUNCTION     0.63     0.89     6.82     0  02:16        0.89
  WS02004404           JUNCTION     0.71     0.96     6.81     0  02:16        0.96
  WS02004405           JUNCTION     0.71     0.95     6.80     0  02:16        0.95
  WS02004406           JUNCTION     0.72     0.95     6.78     0  02:16        0.95
  WS02004407           JUNCTION     0.17     0.29     6.61     0  02:16        0.29
  WS02004409           JUNCTION     0.39     0.66     6.43     0  02:17        0.66
  WS02004410           JUNCTION     0.41     0.68     6.40     0  02:16        0.68
  WS02004411           JUNCTION     0.44     0.69     6.37     0  02:17        0.69
  WS02004412           JUNCTION     0.46     0.70     6.34     0  02:17        0.70
  WS02004413           JUNCTION     0.61     0.85     6.32     0  02:17        0.85
  WS02006109           JUNCTION     0.64     1.24     7.86     0  02:11        1.20
  WS02006110           JUNCTION     0.64     1.37     7.95     0  03:01        1.14
  WS02006111           JUNCTION     0.17     0.29     6.99     0  02:59        0.29
  WS02006112           JUNCTION     0.73     1.09     6.98     0  02:38        1.05
  WS02006113           JUNCTION     0.26     0.46     7.35     0  03:09        0.46
  WS02006115           JUNCTION     0.46     0.75     6.89     0  02:10        0.75
  WS02006116           JUNCTION     0.55     0.83     6.87     0  02:15        0.83
  WS02006228           JUNCTION     0.63     1.38     8.03     0  02:27        1.20
  WS02006229           JUNCTION     0.61     1.44     8.14     0  02:27        1.19
  WS02006230           JUNCTION     0.61     1.73     8.48     0  02:27        1.35
  WS02006231           JUNCTION     0.42     1.40     8.52     0  02:05        1.08
  WS02006232           JUNCTION     0.55     2.18     9.22     0  01:50        1.25
  WS02006234           JUNCTION     0.48     1.79     8.95     0  02:44        1.26
  WS02006235           JUNCTION     0.52     2.00     9.16     0  02:44        1.27
  WS02006238           JUNCTION     0.54     2.07     9.22     0  02:44        1.28
  WS02006239           JUNCTION     0.51     1.98     9.19     0  02:44        1.27
  WS02006240           JUNCTION     0.48     1.79     9.08     0  02:44        1.23
  WS02006242           JUNCTION     0.55     1.55     8.82     0  02:27        1.30
  WS02006243           JUNCTION     0.46     1.41     8.83     0  02:27        1.19
  WS02006245           JUNCTION     0.46     1.33     8.82     0  02:44        1.17
  WS02006247           JUNCTION     0.49     1.28     8.78     0  02:44        1.18
  WS02006248           JUNCTION     0.45     1.10     8.69     0  01:55        1.09
  WS02006249           JUNCTION     0.48     1.09     8.69     0  01:52        1.09
  WS02006251           JUNCTION     0.48     1.38     9.05     0  01:52        1.34
  WS02006252           JUNCTION     0.35     1.50     9.74     0  00:00        0.91
  WS02006256           JUNCTION     0.99     2.35     9.28     0  00:00        2.35
  WSF200               JUNCTION     0.17     0.29     5.52     0  02:15        0.29
  YS02001580           JUNCTION     0.10     1.05     9.59     0  01:44        0.78
  YS02001583           JUNCTION     0.14     1.14     9.64     0  01:44        0.82
  YS02001586           JUNCTION     0.21     1.13     9.30     0  01:43        1.13
  YS02001590           JUNCTION     0.30     1.40     9.26     0  01:44        1.40
  YS02001593           JUNCTION     0.23     1.33     9.19     0  01:44        1.29
  YS02001596           JUNCTION     0.31     1.75     9.17     0  01:42        1.65
  YS02001600           JUNCTION     0.37     1.87     9.00     0  01:42        1.86
  YS02001601           JUNCTION     0.55     2.06     8.90     0  01:42        2.06
  YS02001602           JUNCTION     0.47     1.87     8.77     0  01:43        1.87
  YS02001605           JUNCTION     0.44     1.78     8.68     0  01:44        1.78
  YS02001607           JUNCTION     0.44     1.65     8.49     0  02:18        1.65
  YS02001610           JUNCTION     0.48     1.68     8.48     0  01:44        1.68
  YS02001613           JUNCTION     0.44     1.68     8.52     0  01:44        1.66
  YS02001616           JUNCTION     0.37     1.61     8.52     0  01:44        1.61
  YS02001619           JUNCTION     0.35     1.61     8.54     0  01:44        1.61
  YS02001622           JUNCTION     0.34     1.58     8.49     0  01:44        1.58
  YS02001625           JUNCTION     0.60     1.78     8.38     0  01:44        1.78
  YS02001629           JUNCTION     0.46     1.85     8.40     0  01:44        1.85
  YS02001633           JUNCTION     0.54     2.08     8.53     0  01:45        2.06
  YS02001641           JUNCTION     0.52     2.00     8.44     0  01:45        1.98
  YS02001644           JUNCTION     0.52     1.92     8.35     0  01:45        1.92
  YS02001647           JUNCTION     0.31     1.84     8.45     0  01:45        1.78
  YS02001649           JUNCTION     0.36     2.05     8.44     0  01:47        2.04
  YS02001652           JUNCTION     0.25     2.16     8.76     0  01:46        1.94
  YS02001655           JUNCTION     0.20     2.20     9.05     0  01:46        1.80
  YS02001658           JUNCTION     0.14     2.30     9.44     0  01:47        1.61
  YS02001661           JUNCTION     0.16     2.46     9.86     0  01:47        1.45
  YS02001664           JUNCTION     0.06     1.48     9.40     0  01:48        0.99
  YS02001745           JUNCTION     0.07     2.35     9.87     0  01:47        0.90
  YS02001748           JUNCTION     0.14     2.27     9.35     0  01:47        1.32
  YS02001751           JUNCTION     0.17     2.20     9.08     0  01:47        1.47
  YS02001754           JUNCTION     0.23     2.20     8.81     0  01:47        1.73
  YS02001757           JUNCTION     0.39     2.21     8.47     0  01:47        2.06
  YS02001759           JUNCTION     0.33     2.21     8.57     0  01:47        2.07
  YS02001762           JUNCTION     0.32     2.15     8.55     0  01:47        2.05
  YS02001765           JUNCTION     0.30     2.10     8.55     0  01:47        2.00
  YS02001767           JUNCTION     0.29     2.03     8.52     0  01:46        1.96
  YS02001770           JUNCTION     0.30     1.95     8.44     0  01:46        1.95
  YS02001774           JUNCTION     0.37     2.05     8.47     0  01:46        2.00
  YS02001779           JUNCTION     0.21     1.68     8.37     0  01:46        1.68
  YS02001783           JUNCTION     0.24     1.63     7.78     0  01:45        1.24
  YS02001784           JUNCTION     0.25     1.34     7.41     0  01:45        1.12
  YS02001786           JUNCTION     0.21     1.08     7.11     0  01:45        0.88
  YS02001788           JUNCTION     0.15     0.63     6.60     0  01:48        0.62
  YS02001790           JUNCTION     0.18     0.73     6.37     0  01:48        0.72
  YS02001791           JUNCTION     0.11     0.44     5.91     0  01:49        0.43
  YS02001793           JUNCTION     0.06     0.31     5.14     0  01:50        0.30
  YS02001882           JUNCTION     0.30     1.83     8.55     0  01:44        1.74
  YS02001884           JUNCTION     0.40     1.93     8.55     0  01:44        1.79
  YS02001887           JUNCTION     0.47     1.97     8.51     0  01:44        1.85
  YS02001890           JUNCTION     0.50     1.81     8.32     0  01:44        1.81
  YS02001895           JUNCTION     0.27     1.75     8.50     0  01:44        1.57
  YS02001898           JUNCTION     0.28     1.77     8.51     0  01:44        1.57
  YS02001901           JUNCTION     0.40     1.86     8.47     0  01:44        1.68
  YS02001904           JUNCTION     0.38     1.82     8.45     0  01:44        1.65
  YS02001907           JUNCTION     0.69     1.96     8.25     0  01:45        1.96
  YS02001910           JUNCTION     0.50     2.01     8.51     0  01:46        1.96
  YS02001915           JUNCTION     0.31     2.00     8.72     0  01:45        1.92
  YS02001918           JUNCTION     0.17     1.81     8.88     0  01:46        1.67
  YS02001920           JUNCTION     0.25     2.11     9.11     0  01:46        1.77
  YS02001923           JUNCTION     0.13     2.03     9.29     0  01:46        1.55
  YS02001926           JUNCTION     0.16     1.90     9.35     0  01:46        1.39
  YS02001929           JUNCTION     0.09     1.78     9.47     0  01:46        1.17
  YS02006553           JUNCTION     0.70     2.09     8.37     0  01:45        1.98
  YS02006556           JUNCTION     0.67     2.19     8.50     0  01:45        1.97
  YS02006558           JUNCTION     0.71     2.27     8.53     0  01:45        2.03
  YS02006561           JUNCTION     0.15     1.49     8.15     0  01:45        0.91
  YS02163301           JUNCTION     0.48     1.96     8.47     0  01:45        1.94
  YS02163601           JUNCTION     0.58     2.08     8.48     0  01:45        2.08
  YS02164001           JUNCTION     0.51     2.04     8.49     0  01:45        2.00
  CC-1                 OUTFALL      0.00     0.00     0.00     0  00:00        0.00
  CC-2                 OUTFALL      0.00     0.00     0.00     0  00:00        0.00
  JK-1                 OUTFALL      0.00     0.00     0.00     0  00:00        0.00
  JK-2                 OUTFALL      0.00     0.00     0.00     0  00:00        0.00
  WSC                  OUTFALL      0.18     0.30     0.97     0  02:20        0.30
  CC-storage           STORAGE      0.98     1.74     7.24     0  02:22        1.74
  JK-storage           STORAGE      3.23     4.24     5.04     0  01:55        4.21
  
  
  *******************
  Node Inflow Summary
  *******************
  
  -------------------------------------------------------------------------------------------------
                                  Maximum  Maximum                  Lateral       Total        Flow
                                  Lateral    Total  Time of Max      Inflow      Inflow     Balance
                                   Inflow   Inflow   Occurrence      Volume      Volume       Error
  Node                 Type           LPS      LPS  days hr:min    10^6 ltr    10^6 ltr     Percent
  -------------------------------------------------------------------------------------------------
  WS02003060           JUNCTION     16.53   549.22     0  02:18       0.476        5.47       0.036
  WS02003066           JUNCTION      0.00   532.47     0  02:18           0           5       0.026
  WS02003067           JUNCTION      0.00   532.40     0  02:17           0           5       0.081
  WS02003069           JUNCTION      0.32   549.28     0  02:18     0.00922        5.48       0.067
  WS02003072           JUNCTION      0.00   548.90     0  02:19           0        5.48       0.122
  WS02003073           JUNCTION      1.82   550.85     0  02:19      0.0524        5.52       0.095
  WS02004401           JUNCTION      0.00   541.47     0  02:38           0         5.1       0.194
  WS02004402           JUNCTION      0.00   537.08     0  02:39           0        5.09       0.198
  WS02004403           JUNCTION      0.00   535.54     0  02:18           0        5.08       0.193
  WS02004404           JUNCTION      0.16   535.03     0  02:06     0.00467        5.08       0.163
  WS02004405           JUNCTION      0.04   534.81     0  02:06      0.0011        5.07       0.242
  WS02004406           JUNCTION      0.00   534.96     0  02:16           0        5.06       0.402
  WS02004407           JUNCTION      0.00   534.37     0  02:16           0        5.04       0.017
  WS02004409           JUNCTION      0.00   534.21     0  02:16           0        5.04       0.046
  WS02004410           JUNCTION      0.00   533.84     0  02:16           0        5.03       0.081
  WS02004411           JUNCTION      0.00   532.96     0  02:17           0        5.03       0.105
  WS02004412           JUNCTION      0.00   532.55     0  02:17           0        5.02       0.142
  WS02004413           JUNCTION      0.00   532.66     0  02:17           0        5.02       0.256
  WS02006109           JUNCTION      1.23   564.91     0  03:01      0.0354        5.15       0.161
  WS02006110           JUNCTION      0.00   565.37     0  03:01           0        5.14       0.140
  WS02006111           JUNCTION      0.00   560.59     0  02:23           0        5.13       0.013
  WS02006112           JUNCTION      0.00   543.60     0  02:59           0        5.13       0.353
  WS02006113           JUNCTION      0.00   570.18     0  02:28           0        5.13       0.034
  WS02006115           JUNCTION      0.00   566.19     0  02:38           0        5.11       0.126
  WS02006116           JUNCTION      0.00   544.07     0  02:38           0         5.1       0.048
  WS02006228           JUNCTION      0.00   563.18     0  03:01           0        5.11       0.066
  WS02006229           JUNCTION      0.00   563.11     0  03:01           0        5.12       0.100
  WS02006230           JUNCTION     10.28   594.89     0  02:16       0.296        5.12       0.052
  WS02006231           JUNCTION      0.00   577.42     0  03:38           0        4.82      -0.077
  WS02006232           JUNCTION      0.00   576.56     0  03:38           0        4.84       0.339
  WS02006234           JUNCTION      0.00   581.05     0  01:50           0        4.83      -0.164
  WS02006235           JUNCTION      0.00   586.64     0  01:50           0        4.91       0.291
  WS02006238           JUNCTION      0.00   423.33     0  02:15           0        3.91      -0.043
  WS02006239           JUNCTION      0.00   422.48     0  02:25           0        3.87       0.033
  WS02006240           JUNCTION      0.00   420.39     0  02:35           0        3.83      -0.038
  WS02006242           JUNCTION      0.00   420.28     0  02:35           0        3.81      -0.000
  WS02006243           JUNCTION      0.00   419.34     0  02:35           0         3.8       0.054
  WS02006245           JUNCTION      0.00   418.98     0  02:15           0         3.8       0.221
  WS02006247           JUNCTION      0.00   419.20     0  03:20           0        3.81       0.027
  WS02006248           JUNCTION      0.00   419.61     0  02:35           0        3.81       0.075
  WS02006249           JUNCTION      0.00   459.02     0  00:00           0        4.06       0.265
  WS02006251           JUNCTION      0.08   406.96     0  01:52     0.00222        4.06      -0.030
  WS02006252           JUNCTION      0.00   400.00     0  00:00           0        4.06      -0.023
  WS02006256           JUNCTION      0.00   300.00     0  00:00           0        1.53      -0.794
  WSF200               JUNCTION      0.00   532.51     0  02:18           0           5       0.007
  YS02001580           JUNCTION      0.00   131.13     0  01:43           0     0.00461       3.033
  YS02001583           JUNCTION      0.00   222.92     0  01:44           0      0.0154      -7.206
  YS02001586           JUNCTION    847.09   847.09     0  01:53        1.93        1.94       0.068
  YS02001590           JUNCTION      0.00   317.98     0  02:13           0        1.41      -0.031
  YS02001593           JUNCTION      0.00   318.04     0  02:05           0        1.41       0.002
  YS02001596           JUNCTION      0.00   318.04     0  01:56           0        1.41      -0.010
  YS02001600           JUNCTION      0.00   318.03     0  02:15           0        1.41       0.004
  YS02001601           JUNCTION   1567.79  1885.24     0  01:51        2.64        4.04       0.008
  YS02001602           JUNCTION      0.00   553.37     0  01:43           0        2.33       0.018
  YS02001605           JUNCTION      0.00   553.90     0  01:43           0        2.19       0.023
  YS02001607           JUNCTION      0.00   554.59     0  01:43           0        2.19       0.092
  YS02001610           JUNCTION      0.00   852.10     0  01:52           0        2.55       0.084
  YS02001613           JUNCTION      0.00   549.86     0  01:43           0           2       0.089
  YS02001616           JUNCTION      0.00   554.12     0  01:43           0           2       0.032
  YS02001619           JUNCTION   1511.84  1511.84     0  01:52        3.09        4.73       0.001
  YS02001622           JUNCTION      0.00  1004.37     0  01:51           0        4.36      -0.005
  YS02001625           JUNCTION      0.00  1407.34     0  01:54           0        4.62       0.187
  YS02001629           JUNCTION      0.00   937.17     0  01:44           0        3.51       0.004
  YS02001633           JUNCTION   1177.50  1431.87     0  01:45        1.93        5.07       0.063
  YS02001641           JUNCTION      0.00  1431.35     0  01:45           0        4.72       0.055
  YS02001644           JUNCTION   1057.26  1896.05     0  01:45        1.67        6.39       0.045
  YS02001647           JUNCTION      0.00  1896.25     0  01:45           0        5.67       0.006
  YS02001649           JUNCTION      0.00  2142.48     0  01:46           0        7.21       0.001
  YS02001652           JUNCTION      0.00  1052.64     0  01:50           0        1.54      -0.082
  YS02001655           JUNCTION      0.15  1052.55     0  01:50     0.00443        1.54      -0.043
  YS02001658           JUNCTION      0.00  1052.34     0  01:50           0        1.53      -0.076
  YS02001661           JUNCTION      0.00  1051.73     0  01:50           0        1.53       0.004
  YS02001664           JUNCTION   1035.80  1035.80     0  01:50        1.53        1.53      -0.030
  YS02001745           JUNCTION    677.23   713.02     0  01:47       0.923       0.925       0.181
  YS02001748           JUNCTION      0.04   752.77     0  01:47      0.0013       0.927      -0.391
  YS02001751           JUNCTION      0.01   689.52     0  01:49    0.000317       0.935       0.088
  YS02001754           JUNCTION      0.26   690.14     0  01:49     0.00749        0.95      -0.168
  YS02001757           JUNCTION      0.00  3532.09     0  01:48           0          11       0.034
  YS02001759           JUNCTION    938.12  1553.43     0  01:47        1.28        2.88      -0.016
  YS02001762           JUNCTION      0.00   876.11     0  01:47           0         1.6       0.004
  YS02001765           JUNCTION      0.00   876.79     0  01:47           0         1.6      -0.005
  YS02001767           JUNCTION      0.54   877.31     0  01:47      0.0154         1.6      -0.005
  YS02001770           JUNCTION   1302.76  1302.76     0  01:51        1.94        1.99      -0.033
  YS02001774           JUNCTION      0.00   811.92     0  01:50           0        0.42       0.255
  YS02001779           JUNCTION      0.01   812.12     0  01:50    0.000144       0.376      -0.173
  YS02001783           JUNCTION      0.00  1170.45     0  01:48           0        4.21       0.004
  YS02001784           JUNCTION      1.06  1171.50     0  01:47      0.0305        4.24       0.012
  YS02001786           JUNCTION      0.06  1170.77     0  01:48     0.00162        4.24       0.017
  YS02001788           JUNCTION      0.07  1172.22     0  01:48     0.00204        4.24       0.007
  YS02001790           JUNCTION      0.15  1175.17     0  01:48     0.00446        4.25       0.018
  YS02001791           JUNCTION      0.00  1296.36     0  01:48           0        4.25      -0.027
  YS02001793           JUNCTION      0.00  1249.01     0  01:50           0        4.25       0.005
  YS02001882           JUNCTION      0.00   107.77     0  01:44           0      0.0131       3.501
  YS02001884           JUNCTION      0.00   124.98     0  01:44           0      0.0492       5.168
  YS02001887           JUNCTION   1021.57  1021.57     0  01:50        1.33        1.36       0.309
  YS02001890           JUNCTION      0.00  1021.77     0  01:50           0        1.32       0.367
  YS02001895           JUNCTION      0.00   525.35     0  01:45           0        1.13       0.151
  YS02001898           JUNCTION      0.00   525.26     0  01:45           0        1.13      -0.015
  YS02001901           JUNCTION      0.00   526.09     0  01:45           0        1.13       0.296
  YS02001904           JUNCTION      0.00   526.43     0  01:45           0        1.14       0.224
  YS02001907           JUNCTION      0.00  2380.04     0  01:50           0        4.07       0.419
  YS02001910           JUNCTION      0.00  1688.05     0  01:50           0         2.9       0.243
  YS02001915           JUNCTION   1143.17  1688.22     0  01:50        1.85        2.95       0.051
  YS02001918           JUNCTION      0.00   555.81     0  01:52           0        1.14       0.013
  YS02001920           JUNCTION      2.87   556.51     0  01:52      0.0827        1.12       0.085
  YS02001923           JUNCTION      0.04   598.79     0  01:45     0.00109        1.02      -0.031
  YS02001926           JUNCTION      0.05   926.29     0  01:46      0.0015       0.996      -0.043
  YS02001929           JUNCTION    547.41   771.28     0  01:46       0.973       0.979      -0.046
  YS02006553           JUNCTION      0.00   797.43     0  02:10           0        2.38       0.493
  YS02006556           JUNCTION      0.00   796.93     0  02:10           0        2.39       0.325
  YS02006558           JUNCTION   1343.56  1343.56     0  01:50        1.95        4.28       0.078
  YS02006561           JUNCTION      0.00  1171.31     0  01:48           0        4.21      -0.000
  YS02163301           JUNCTION      0.00   926.13     0  01:45           0         3.5       0.040
  YS02163601           JUNCTION      0.11  1431.74     0  01:45     0.00317        4.72       0.102
  YS02164001           JUNCTION      0.00  1431.96     0  01:45           0        4.72       0.040
  CC-1                 OUTFALL       0.00   683.00     0  00:00           0           4       0.000
  CC-2                 OUTFALL       0.00   683.00     0  00:00           0           3       0.000
  JK-1                 OUTFALL       0.00  1000.00     0  00:00           0        2.64       0.000
  JK-2                 OUTFALL       0.00  1000.00     0  00:00           0      0.0484       0.000
  WSC                  OUTFALL       0.00   550.59     0  02:20           0        5.52       0.000
  CC-storage           STORAGE       0.00  3531.23     0  01:48           0        13.2      -0.085
  JK-storage           STORAGE       0.00  1228.06     0  02:05           0         4.4       0.102
  
  
  **********************
  Node Surcharge Summary
  **********************
  
  Surcharging occurs when water rises above the top of the highest conduit.
  ---------------------------------------------------------------------
                                               Max. Height   Min. Depth
                                   Hours       Above Crown    Below Rim
  Node                 Type      Surcharged         Meters       Meters
  ---------------------------------------------------------------------
  WS02006109           JUNCTION        2.15          0.419        1.401
  WS02006110           JUNCTION        0.71          0.459        1.391
  WS02006112           JUNCTION        0.87          0.094        1.586
  WS02006228           JUNCTION        2.15          0.550        1.650
  WS02006229           JUNCTION        2.15          0.644        1.806
  WS02006230           JUNCTION        0.75          0.654        0.916
  WS02006231           JUNCTION        1.00          0.686        0.844
  WS02006232           JUNCTION        2.16          1.480        0.000
  WS02006234           JUNCTION        1.60          1.071        0.169
  WS02006235           JUNCTION        2.09          1.290        0.000
  WS02006238           JUNCTION        2.15          1.352        0.078
  WS02006239           JUNCTION        2.12          1.237        0.053
  WS02006240           JUNCTION        2.15          1.082        0.308
  WS02006242           JUNCTION        2.16          0.820        0.000
  WS02006243           JUNCTION        2.07          0.698        0.072
  WS02006245           JUNCTION        2.07          0.624        0.226
  WS02006247           JUNCTION        2.07          0.572        0.188
  WS02006248           JUNCTION        2.06          0.380        0.000
  WS02006249           JUNCTION        2.06          0.390        0.000
  WS02006251           JUNCTION        1.12          0.347        0.833
  WS02006252           JUNCTION        2.21          1.100        0.000
  WS02006256           JUNCTION        5.52          2.050        0.000
  YS02001580           JUNCTION        0.69          0.450        0.000
  YS02001583           JUNCTION        0.70          0.500        0.000
  YS02001586           JUNCTION        0.84          0.510        0.000
  YS02001590           JUNCTION        0.91          0.750        0.000
  YS02001593           JUNCTION        0.91          0.707        0.133
  YS02001596           JUNCTION        1.03          1.017        0.053
  YS02001600           JUNCTION        1.18          1.190        0.000
  YS02001601           JUNCTION        1.53          1.440        0.000
  YS02001602           JUNCTION        1.44          1.270        0.000
  YS02001605           JUNCTION        1.38          1.180        0.000
  YS02001607           JUNCTION        0.91          0.646        0.034
  YS02001610           JUNCTION        0.94          0.680        0.000
  YS02001613           JUNCTION        0.91          0.677        0.023
  YS02001616           JUNCTION        0.86          0.610        0.000
  YS02001619           JUNCTION        0.85          0.610        0.000
  YS02001622           JUNCTION        0.85          0.583        0.037
  YS02001625           JUNCTION        1.03          0.780        0.000
  YS02001629           JUNCTION        0.80          0.470        0.000
  YS02001633           JUNCTION        1.06          1.060        0.000
  YS02001641           JUNCTION        1.03          1.004        0.096
  YS02001644           JUNCTION        1.00          0.920        0.000
  YS02001647           JUNCTION        0.80          0.843        0.057
  YS02001649           JUNCTION        0.93          1.050        0.000
  YS02001652           JUNCTION        0.72          1.130        0.000
  YS02001655           JUNCTION        0.53          1.200        0.000
  YS02001658           JUNCTION        0.28          1.300        0.000
  YS02001661           JUNCTION        0.10          1.390        0.000
  YS02001664           JUNCTION        0.01          0.479        0.831
  YS02001745           JUNCTION        0.01          1.350        0.000
  YS02001748           JUNCTION        0.22          1.190        0.000
  YS02001751           JUNCTION        0.38          1.200        0.000
  YS02001754           JUNCTION        0.62          1.150        0.000
  YS02001757           JUNCTION        1.01          1.210        0.000
  YS02001759           JUNCTION        0.91          1.207        0.003
  YS02001762           JUNCTION        0.88          1.150        0.000
  YS02001765           JUNCTION        0.82          1.100        0.000
  YS02001767           JUNCTION        0.79          1.030        0.000
  YS02001770           JUNCTION        0.75          0.920        0.000
  YS02001774           JUNCTION        0.85          1.050        0.000
  YS02001779           JUNCTION        0.61          0.680        0.000
  YS02001783           JUNCTION        0.60          0.834        0.766
  YS02001784           JUNCTION        0.57          0.543        0.947
  YS02001786           JUNCTION        0.47          0.279        1.151
  YS02001882           JUNCTION        0.54          0.830        0.000
  YS02001884           JUNCTION        0.55          0.870        0.000
  YS02001887           JUNCTION        0.59          0.920        0.030
  YS02001890           JUNCTION        0.60          0.760        0.000
  YS02001895           JUNCTION        0.53          0.750        0.000
  YS02001898           JUNCTION        0.52          0.740        0.000
  YS02001901           JUNCTION        0.57          0.860        0.010
  YS02001904           JUNCTION        0.56          0.824        0.026
  YS02001907           JUNCTION        0.80          0.950        0.000
  YS02001910           JUNCTION        0.63          1.008        0.092
  YS02001915           JUNCTION        0.54          1.000        0.000
  YS02001918           JUNCTION        0.46          0.810        0.000
  YS02001920           JUNCTION        0.47          1.106        0.034
  YS02001923           JUNCTION        0.17          0.820        0.000
  YS02001926           JUNCTION        0.19          0.900        0.000
  YS02001929           JUNCTION        0.02          0.780        0.000
  YS02006553           JUNCTION        0.81          1.086        0.104
  YS02006556           JUNCTION        0.71          1.153        0.197
  YS02006558           JUNCTION        0.70          1.167        0.233
  YS02006561           JUNCTION        0.42          0.694        0.456
  YS02163301           JUNCTION        1.05          0.958        0.072
  YS02163601           JUNCTION        1.10          1.080        0.000
  YS02164001           JUNCTION        1.02          1.036        0.064
  
  
  *********************
  Node Flooding Summary
  *********************
  
  Flooding refers to all water that overflows a node, whether it ponds or not.
  --------------------------------------------------------------------------
                                                             Total   Maximum
                                 Maximum   Time of Max       Flood    Ponded
                        Hours       Rate    Occurrence      Volume     Depth
  Node                 Flooded       LPS   days hr:min    10^6 ltr    Meters
  --------------------------------------------------------------------------
  WS02006232              0.01     52.77      0  01:50       0.000     0.000
  WS02006235              0.01     12.98      0  02:44       0.000     0.000
  WS02006242              0.01     19.10      0  02:44       0.000     0.000
  WS02006248              0.02     19.47      0  02:10       0.001     0.000
  WS02006249              1.06     96.72      0  01:52       0.244     0.000
  WS02006252              0.01    245.63      0  00:00       0.000     0.000
  WS02006256              1.41    293.19      0  00:00       0.489     0.000
  YS02001580              0.01    102.90      0  01:44       0.000     0.000
  YS02001583              0.01    188.62      0  01:44       0.000     0.000
  YS02001586              0.57    529.64      0  01:53       0.519     0.000
  YS02001590              0.01      2.07      0  01:44       0.000     0.000
  YS02001600              0.01      6.51      0  01:42       0.000     0.000
  YS02001601              0.76   1487.39      0  01:51       1.714     0.000
  YS02001602              0.68     61.98      0  02:05       0.138     0.000
  YS02001605              0.01      5.34      0  01:44       0.000     0.000
  YS02001610              0.59    851.49      0  01:52       0.911     0.000
  YS02001616              0.01      3.76      0  01:44       0.000     0.000
  YS02001619              0.01      2.63      0  01:44       0.000     0.000
  YS02001625              0.56   1407.26      0  01:54       1.453     0.000
  YS02001629              0.16    383.57      0  01:49       0.109     0.000
  YS02001633              0.01      4.59      0  01:45       0.000     0.000
  YS02001644              0.25   1471.59      0  01:51       0.712     0.000
  YS02001649              0.01    173.41      0  01:47       0.002     0.000
  YS02001652              0.01     87.40      0  01:46       0.000     0.000
  YS02001655              0.01    320.00      0  01:46       0.000     0.000
  YS02001658              0.01    528.13      0  01:47       0.001     0.000
  YS02001661              0.01    347.24      0  01:47       0.000     0.000
  YS02001745              0.01    140.71      0  01:47       0.000     0.000
  YS02001748              0.01    572.87      0  01:47       0.001     0.000
  YS02001751              0.01    268.24      0  01:47       0.000     0.000
  YS02001754              0.01     70.59      0  01:47       0.000     0.000
  YS02001757              0.01     17.72      0  01:47       0.000     0.000
  YS02001762              0.01     10.02      0  01:47       0.000     0.000
  YS02001765              0.01      4.63      0  01:47       0.000     0.000
  YS02001767              0.01    142.35      0  01:46       0.000     0.000
  YS02001770              0.03    293.66      0  01:46       0.002     0.000
  YS02001774              0.01     45.21      0  01:46       0.000     0.000
  YS02001779              0.22    811.84      0  01:50       0.357     0.000
  YS02001882              0.01     93.62      0  01:44       0.000     0.000
  YS02001884              0.01     10.29      0  01:44       0.000     0.000
  YS02001890              0.19    505.93      0  01:50       0.185     0.000
  YS02001895              0.01     53.97      0  01:44       0.000     0.000
  YS02001898              0.01    120.35      0  01:44       0.000     0.000
  YS02001907              0.40   2379.07      0  01:50       1.715     0.000
  YS02001915              0.01    240.76      0  01:45       0.000     0.000
  YS02001918              0.01    153.05      0  01:46       0.002     0.000
  YS02001923              0.01    125.94      0  01:46       0.000     0.000
  YS02001926              0.01    728.53      0  01:46       0.005     0.000
  YS02001929              0.01    551.78      0  01:46       0.001     0.000
  YS02163601              0.01     11.12      0  01:45       0.000     0.000
  
  
  **********************
  Storage Volume Summary
  **********************
  
  ------------------------------------------------------------------------------------------------
                         Average    Avg   Evap  Exfil     Maximum    Max    Time of Max    Maximum
                          Volume   Pcnt   Pcnt   Pcnt      Volume   Pcnt     Occurrence    Outflow
  Storage Unit           1000 m³   Full   Loss   Loss     1000 m³   Full    days hr:min        LPS
  ------------------------------------------------------------------------------------------------
  CC-storage               2.727   42.5    0.0    0.0       4.853   75.7       0  02:22    1783.53
  JK-storage               0.162   55.7    0.0    0.0       0.213   73.1       0  01:55    2300.00
  
  
  ***********************
  Outfall Loading Summary
  ***********************
  
  -----------------------------------------------------------
                         Flow       Avg       Max       Total
                         Freq      Flow      Flow      Volume
  Outfall Node           Pcnt       LPS       LPS    10^6 ltr
  -----------------------------------------------------------
  CC-1                  23.70    683.00    683.00       3.998
  CC-2                  18.81    683.00    683.00       2.998
  JK-1                  11.55   1000.00   1000.00       2.643
  JK-2                   0.15   1000.00   1000.00       0.048
  WSC                   99.96    259.11    550.59       5.518
  -----------------------------------------------------------
  System                30.83   3625.11   3366.23      15.206
  
  
  ********************
  Link Flow Summary
  ********************
  
  -----------------------------------------------------------------------------
                                 Maximum  Time of Max   Maximum    Max/    Max/
                                  |Flow|   Occurrence   |Veloc|    Full    Full
  Link                 Type          LPS  days hr:min     m/sec    Flow   Depth
  -----------------------------------------------------------------------------
  1                    CONDUIT    550.59     0  02:20      2.82    0.19    0.30
  WS02003060WS02003069 CONDUIT    548.96     0  02:18      1.64    0.21    0.34
  WS02003066WSF200     CONDUIT    532.51     0  02:18      2.85    0.09    0.22
  WS02003067WS02003066 CONDUIT    532.47     0  02:18      1.20    0.17    0.41
  WS02003069WS02003072 CONDUIT    548.90     0  02:19      1.37    0.26    0.39
  WS02003072WS02003073 CONDUIT    549.03     0  02:19      1.43    1.19    0.37
  WS02004401WS02004402 CONDUIT    537.08     0  02:39      1.08    0.64    0.86
  WS02004402WS02004403 CONDUIT    535.54     0  02:18      1.09    0.77    0.88
  WS02004403WS02004404 CONDUIT    534.87     0  02:06      1.05    0.39    0.93
  WS02004404WS02004405 CONDUIT    534.77     0  02:06      1.24    5.24    0.96
  WS02004405WS02004406 CONDUIT    534.96     0  02:16      1.20    1.06    0.95
  WS02004406WS02004407 CONDUIT    534.37     0  02:16      1.04    0.24    0.62
  WS02004407WS02004409 CONDUIT    534.21     0  02:16      1.57    0.19    0.48
  WS02004409WS02004410 CONDUIT    533.84     0  02:16      1.05    0.69    0.67
  WS02004410WS02004411 CONDUIT    532.96     0  02:17      1.00    0.73    0.68
  WS02004411WS02004412 CONDUIT    532.55     0  02:17      0.96    0.76    0.69
  WS02004412WS02004413 CONDUIT    532.66     0  02:17      0.82    0.36    0.78
  WS02004413WS02003067 CONDUIT    532.40     0  02:17      1.10    0.23    0.59
  WS02006109WS02006110 CONDUIT    565.37     0  03:01      1.13    1.09    1.00
  WS02006110WS02006113 CONDUIT    570.18     0  02:28      1.38    0.52    0.78
  WS02006111WS02006112 CONDUIT    543.60     0  02:59      1.87    0.26    0.67
  WS02006112WS02006115 CONDUIT    566.19     0  02:38      0.86    0.33    0.87
  WS02006113WS02006111 CONDUIT    560.59     0  02:23      2.47    0.67    0.46
  WS02006115WS02006116 CONDUIT    544.07     0  02:38      1.11    0.70    0.76
  WS02006116WS02004401 CONDUIT    541.47     0  02:38      1.07    0.75    0.84
  WS02006228WS02006109 CONDUIT    563.68     0  03:01      1.12    2.46    1.00
  WS02006229WS02006228 CONDUIT    563.18     0  03:01      1.12    1.87    1.00
  WS02006230WS02006229 CONDUIT    563.11     0  03:01      1.46   12.53    1.00
  WS02006231WS02006230 CONDUIT    584.61     0  02:16      1.60    8.87    1.00
  WS02006232WS02006231 CONDUIT    577.42     0  03:38      1.51    1.21    1.00
  WS02006234WS02006232 CONDUIT    576.56     0  03:38      1.50    1.17    1.00
  WS02006235WS02006234 CONDUIT    581.05     0  01:50      1.57    6.13    1.00
  WS02006238WS02006235 CONDUIT    424.22     0  02:20      1.56    0.95    1.00
  WS02006239WS02006238 CONDUIT    423.33     0  02:15      1.10    1.35    1.00
  WS02006240WS02006239 CONDUIT    422.48     0  02:25      1.24    1.33    1.00
  WS02006242WS02006240 CONDUIT    420.39     0  02:35      1.13    1.67    1.00
  WS02006243WS02006242 CONDUIT    420.28     0  02:35      1.40    0.90    1.00
  WS02006245WS02006243 CONDUIT    419.34     0  02:35      1.45    1.24    1.00
  WS02006247WS02006245 CONDUIT    418.98     0  02:15      1.43    3.32    1.00
  WS02006248WS02006247 CONDUIT    419.20     0  03:20      1.44    0.91    1.00
  WS02006249WS02006248 CONDUIT    419.61     0  02:35      1.36    2.30    1.00
  WS02006251WS02006249 CONDUIT    459.02     0  00:00      1.99    1.32    1.00
  WS02006252WS02006251 CONDUIT    406.89     0  01:52      3.87    1.49    1.00
  WS02006256WS02006235 CONDUIT    288.91     0  00:00      4.23    3.06    1.00
  WSF200WS02003060     CONDUIT    532.69     0  02:18      2.06    0.12    0.28
  YS02001580YS02001583 CONDUIT    131.13     0  01:43      0.80    0.51    1.00
  YS02001583YS02001586 CONDUIT    182.60     0  01:44      0.81    0.28    1.00
  YS02001586YS02001590 CONDUIT    317.98     0  02:13      1.26    0.56    1.00
  YS02001590YS02001593 CONDUIT    318.04     0  02:05      1.12    2.00    1.00
  YS02001593YS02001596 CONDUIT    318.04     0  01:56      1.74    0.50    1.00
  YS02001596YS02001600 CONDUIT    318.03     0  02:15      1.23    0.62    1.00
  YS02001600YS02001601 CONDUIT    318.00     0  01:56      1.12    0.55    1.00
  YS02001601YS02001602 CONDUIT    553.37     0  01:43      1.96    2.00    1.00
  YS02001602YS02001605 CONDUIT    553.90     0  01:43      1.96   11.72    1.00
  YS02001605YS02001607 CONDUIT    554.59     0  01:43      1.96    3.04    1.00
  YS02001607YS02001610 CONDUIT    542.85     0  01:43      0.69    0.52    1.00
  YS02001610YS02001613 CONDUIT    549.86     0  01:43      0.70    0.63    1.00
  YS02001613YS02001616 CONDUIT    554.12     0  01:43      0.71    0.47    1.00
  YS02001616YS02001619 CONDUIT    522.06     0  01:43      0.68    0.91    1.00
  YS02001619YS02001622 CONDUIT   1004.37     0  01:51      1.28    1.48    1.00
  YS02001622YS02001625 CONDUIT   1005.17     0  01:51      1.28    0.54    1.00
  YS02001625YS02001629 CONDUIT    937.17     0  01:44      1.19    0.45    1.00
  YS02001629YS02163301 CONDUIT    926.13     0  01:45      1.18    1.14    1.00
  YS02001633YS02163601 CONDUIT   1431.63     0  01:45      1.82    1.50    1.00
  YS02001641YS02001644 CONDUIT   1431.62     0  01:45      1.82    4.63    1.00
  YS02001644YS02001647 CONDUIT   1896.25     0  01:45      2.43    1.11    1.00
  YS02001647YS02001649 CONDUIT   1878.82     0  01:45      2.39    0.99    1.00
  YS02001649YS02001757 CONDUIT   2140.13     0  01:46      2.72    1.30    1.00
  YS02001652YS02001649 CONDUIT   1052.60     0  01:50      1.34    0.52    1.00
  YS02001655YS02001652 CONDUIT   1052.64     0  01:50      1.43    0.51    1.00
  YS02001658YS02001655 CONDUIT   1052.39     0  01:50      1.98    0.45    1.00
  YS02001661YS02001658 CONDUIT   1052.34     0  01:50      2.41    0.41    1.00
  YS02001664YS02001661 CONDUIT   1051.73     0  01:50      2.47    0.33    1.00
  YS02001745YS02001748 CONDUIT    752.72     0  01:47      2.32    0.29    1.00
  YS02001748YS02001751 CONDUIT    689.51     0  01:49      1.81    0.35    1.00
  YS02001751YS02001754 CONDUIT    689.88     0  01:49      1.52    0.33    1.00
  YS02001754YS02001757 CONDUIT    691.54     0  01:49      0.88    0.28    1.00
  YS02001757CaochengTiaoxuchi CONDUIT   3531.23     0  01:48      4.50    1.53    1.00
  YS02001759YS02001757 CONDUIT   1554.37     0  01:47      1.98    1.10    1.00
  YS02001762YS02001759 CONDUIT    875.79     0  01:47      1.12    1.01    1.00
  YS02001765YS02001762 CONDUIT    876.11     0  01:47      1.12    0.82    1.00
  YS02001767YS02001765 CONDUIT    876.79     0  01:47      1.12    1.10    1.00
  YS02001770YS02001767 CONDUIT    876.77     0  01:47      1.12    3.47    1.00
  YS02001774YS02001770 CONDUIT    811.92     0  01:50      1.03    0.52    1.00
  YS02001779YS02001774 CONDUIT    812.11     0  01:50      1.03    0.41    1.00
  YS02001783YS02001784 CONDUIT   1170.44     0  01:47      2.33    1.61    1.00
  YS02001784YS02001785 CONDUIT   1170.71     0  01:48      2.33    2.72    1.00
  YS02001786YS02001788 CONDUIT   1172.15     0  01:48      2.49    2.26    0.89
  YS02001788YS02001790 CONDUIT   1175.02     0  01:48      2.71    0.87    0.85
  YS02001790YS02001791 CONDUIT   1296.36     0  01:48      3.44    1.41    0.71
  YS02001791YS02001793 CONDUIT   1249.01     0  01:50      6.52    0.54    0.45
  YS02001793JiankangQianchi CONDUIT   1228.06     0  02:05      2.41    0.10    0.65
  YS02001882YS02001884 CONDUIT    107.77     0  01:44      0.14    0.12    1.00
  YS02001884YS02001887 CONDUIT    124.98     0  01:44      0.16    0.17    1.00
  YS02001887YS02001890 CONDUIT   1021.77     0  01:50      1.30    1.75    1.00
  YS02001890YS02001895 CONDUIT    525.35     0  01:45      0.67    0.24    1.00
  YS02001895YS02001898 CONDUIT    525.26     0  01:45      0.67    0.91    1.00
  YS02001898YS02001901 CONDUIT    526.09     0  01:45      0.67    0.34    1.00
  YS02001901YS02001904 CONDUIT    526.43     0  01:45      0.67    0.82    1.00
  YS02001904YS02001907 CONDUIT    526.71     0  01:45      0.67    0.18    1.00
  YS02001907YS02006553 CONDUIT    797.43     0  02:10      0.89    0.94    1.00
  YS02001910YS02001907 CONDUIT   1688.43     0  01:50      2.15    0.95    1.00
  YS02001915YS02001910 CONDUIT   1688.05     0  01:50      2.15    0.84    1.00
  YS02001918YS02001915 CONDUIT    556.06     0  01:52      0.71    0.31    1.00
  YS02001920YS02001918 CONDUIT    555.81     0  01:52      0.71    0.54    1.00
  YS02001923YS02001920 CONDUIT    553.64     0  01:52      0.72    0.25    1.00
  YS02001926YS02001923 CONDUIT    705.51     0  01:46      1.14    1.01    1.00
  YS02001929YS02001926 CONDUIT    553.42     0  01:52      1.18    0.26    1.00
  YS02006553YS02006556 CONDUIT    796.93     0  02:10      1.01    0.68    1.00
  YS02006556YS02006558 CONDUIT    797.85     0  02:10      1.02    0.63    1.00
  YS02006558YS02006561 CONDUIT   1171.31     0  01:48      4.14    2.59    1.00
  YS02006561YS02001783 CONDUIT   1170.45     0  01:48      2.33    0.61    1.00
  YS02163301YS02001633 CONDUIT    926.16     0  01:45      1.18    0.87    1.00
  YS02163601YS02164001 CONDUIT   1431.96     0  01:45      1.82    1.27    1.00
  YS02164001YS02001641 CONDUIT   1431.35     0  01:45      1.82    1.95    1.00
  CC-R1                PUMP       683.00     0  00:00              1.00
  CC-R2                PUMP       683.00     0  00:00              1.00
  CC-S1                PUMP       200.00     0  00:00              1.00
  CC-S2                PUMP       200.00     0  00:00              1.00
  JK-R1                PUMP      1000.00     0  00:00              1.00
  JK-R2                PUMP      1000.00     0  00:00              1.00
  JK-S                 PUMP       300.00     0  00:00              1.00
  
  
  ***************************
  Flow Classification Summary
  ***************************
  
  -------------------------------------------------------------------------------------
                      Adjusted    ---------- Fraction of Time in Flow Class ---------- 
                       /Actual         Up    Down  Sub   Sup   Up    Down  Norm  Inlet 
  Conduit               Length    Dry  Dry   Dry   Crit  Crit  Crit  Crit  Ltd   Ctrl  
  -------------------------------------------------------------------------------------
  1                       1.00   0.00  0.00  0.00  0.00  1.00  0.00  0.00  0.43  0.00
  WS02003060WS02003069    1.00   0.00  0.00  0.00  0.98  0.02  0.00  0.00  0.71  0.00
  WS02003066WSF200        1.00   0.08  0.00  0.00  0.00  0.92  0.00  0.00  0.81  0.00
  WS02003067WS02003066    1.00   0.07  0.01  0.00  0.93  0.00  0.00  0.00  0.00  0.00
  WS02003069WS02003072    1.00   0.00  0.00  0.00  0.99  0.01  0.00  0.00  0.72  0.00
  WS02003072WS02003073    1.00   0.00  0.00  0.00  0.00  0.00  0.00  1.00  0.00  0.00
  WS02004401WS02004402    1.00   0.02  0.00  0.00  0.98  0.00  0.00  0.00  0.00  0.00
  WS02004402WS02004403    1.00   0.02  0.00  0.00  0.97  0.00  0.00  0.00  0.00  0.00
  WS02004403WS02004404    1.00   0.00  0.03  0.00  0.97  0.00  0.00  0.00  0.00  0.00
  WS02004404WS02004405    1.00   0.00  0.00  0.00  1.00  0.00  0.00  0.00  0.00  0.00
  WS02004405WS02004406    1.00   0.00  0.00  0.00  1.00  0.00  0.00  0.00  0.00  0.00
  WS02004406WS02004407    1.00   0.00  0.04  0.00  0.96  0.00  0.00  0.00  0.00  0.00
  WS02004407WS02004409    1.00   0.04  0.00  0.00  0.95  0.01  0.00  0.00  0.95  0.00
  WS02004409WS02004410    1.00   0.04  0.00  0.00  0.96  0.00  0.00  0.00  0.00  0.00
  WS02004410WS02004411    1.00   0.04  0.00  0.00  0.96  0.00  0.00  0.00  0.00  0.00
  WS02004411WS02004412    1.00   0.04  0.00  0.00  0.96  0.00  0.00  0.00  0.00  0.00
  WS02004412WS02004413    1.00   0.04  0.00  0.00  0.95  0.00  0.00  0.00  0.01  0.00
  WS02004413WS02003067    1.00   0.05  0.02  0.00  0.00  0.00  0.93  0.00  0.00  0.00
  WS02006109WS02006110    1.00   0.00  0.01  0.00  0.98  0.00  0.01  0.00  0.00  0.00
  WS02006110WS02006113    1.00   0.01  0.01  0.00  0.98  0.00  0.00  0.00  0.00  0.00
  WS02006111WS02006112    1.00   0.02  0.00  0.00  0.98  0.00  0.00  0.00  0.98  0.00
  WS02006112WS02006115    1.00   0.02  0.00  0.00  0.97  0.00  0.00  0.00  0.00  0.00
  WS02006113WS02006111    1.00   0.02  0.00  0.00  0.00  0.98  0.00  0.00  0.13  0.00
  WS02006115WS02006116    1.00   0.02  0.00  0.00  0.97  0.00  0.00  0.01  0.00  0.00
  WS02006116WS02004401    1.00   0.02  0.00  0.00  0.98  0.00  0.00  0.00  0.00  0.00
  WS02006228WS02006109    1.00   0.00  0.00  0.00  1.00  0.00  0.00  0.00  0.00  0.00
  WS02006229WS02006228    1.00   0.00  0.00  0.00  0.99  0.00  0.00  0.01  0.00  0.00
  WS02006230WS02006229    1.00   0.00  0.00  0.00  0.99  0.00  0.00  0.01  0.00  0.00
  WS02006231WS02006230    1.00   0.00  0.00  0.00  0.28  0.00  0.72  0.00  0.00  0.00
  WS02006232WS02006231    1.00   0.00  0.00  0.00  0.98  0.00  0.01  0.00  0.00  0.00
  WS02006234WS02006232    1.00   0.00  0.00  0.00  1.00  0.00  0.00  0.00  0.15  0.00
  WS02006235WS02006234    1.00   0.00  0.00  0.00  0.78  0.00  0.22  0.00  0.00  0.00
  WS02006238WS02006235    1.00   0.00  0.00  0.00  1.00  0.00  0.00  0.00  0.00  0.00
  WS02006239WS02006238    1.00   0.00  0.00  0.00  1.00  0.00  0.00  0.00  0.31  0.00
  WS02006240WS02006239    1.00   0.00  0.00  0.00  0.60  0.00  0.00  0.40  0.02  0.00
  WS02006242WS02006240    1.00   0.00  0.00  0.00  0.99  0.00  0.01  0.00  0.00  0.00
  WS02006243WS02006242    1.00   0.00  0.00  0.00  0.99  0.00  0.00  0.01  0.53  0.00
  WS02006245WS02006243    1.00   0.00  0.00  0.00  0.71  0.00  0.00  0.29  0.01  0.00
  WS02006247WS02006245    1.00   0.00  0.00  0.00  0.99  0.00  0.00  0.01  0.00  0.00
  WS02006248WS02006247    1.00   0.00  0.00  0.00  0.99  0.00  0.00  0.01  0.28  0.00
  WS02006249WS02006248    1.00   0.00  0.00  0.00  0.46  0.00  0.54  0.00  0.00  0.00
  WS02006251WS02006249    1.00   0.00  0.00  0.00  1.00  0.00  0.00  0.00  0.55  0.00
  WS02006252WS02006251    1.00   0.00  0.57  0.00  0.14  0.00  0.29  0.00  0.00  0.00
  WS02006256WS02006235    1.00   0.00  0.00  0.00  0.99  0.01  0.00  0.00  0.00  0.00
  WSF200WS02003060        1.00   0.00  0.08  0.00  0.37  0.55  0.00  0.00  0.53  0.00
  YS02001580YS02001583    1.00   0.21  0.58  0.00  0.21  0.00  0.00  0.00  0.67  0.00
  YS02001583YS02001586    1.00   0.42  0.32  0.00  0.26  0.00  0.00  0.00  0.67  0.00
  YS02001586YS02001590    1.00   0.13  0.00  0.00  0.43  0.04  0.00  0.41  0.35  0.00
  YS02001590YS02001593    1.00   0.13  0.01  0.00  0.13  0.00  0.74  0.00  0.00  0.00
  YS02001593YS02001596    1.00   0.13  0.00  0.00  0.15  0.01  0.00  0.71  0.02  0.00
  YS02001596YS02001600    1.00   0.14  0.00  0.00  0.21  0.01  0.00  0.65  0.04  0.00
  YS02001600YS02001601    1.00   0.13  0.01  0.00  0.86  0.00  0.00  0.00  0.60  0.00
  YS02001601YS02001602    1.00   0.13  0.01  0.00  0.87  0.00  0.00  0.00  0.00  0.00
  YS02001602YS02001605    1.00   0.13  0.00  0.00  0.86  0.00  0.00  0.00  0.00  0.00
  YS02001605YS02001607    1.00   0.14  0.00  0.00  0.86  0.00  0.00  0.00  0.00  0.00
  YS02001607YS02001610    1.00   0.13  0.01  0.00  0.86  0.00  0.00  0.00  0.01  0.00
  YS02001610YS02001613    1.00   0.13  0.00  0.00  0.87  0.00  0.00  0.00  0.00  0.00
  YS02001613YS02001616    1.00   0.13  0.00  0.00  0.87  0.00  0.00  0.00  0.00  0.00
  YS02001616YS02001619    1.00   0.13  0.00  0.00  0.87  0.00  0.00  0.00  0.00  0.00
  YS02001619YS02001622    1.00   0.13  0.00  0.00  0.87  0.00  0.00  0.00  0.29  0.00
  YS02001622YS02001625    1.00   0.13  0.00  0.00  0.87  0.00  0.00  0.00  0.04  0.00
  YS02001625YS02001629    1.00   0.13  0.05  0.00  0.17  0.00  0.65  0.00  0.00  0.00
  YS02001629YS02163301    1.00   0.15  0.01  0.00  0.84  0.00  0.00  0.00  0.00  0.00
  YS02001633YS02163601    1.00   0.00  0.01  0.00  0.99  0.00  0.00  0.00  0.15  0.00
  YS02001641YS02001644    1.00   0.00  0.01  0.00  0.99  0.00  0.00  0.00  0.00  0.00
  YS02001644YS02001647    1.00   0.00  0.17  0.00  0.83  0.00  0.00  0.00  0.00  0.00
  YS02001647YS02001649    1.00   0.00  0.17  0.00  0.58  0.25  0.00  0.00  0.56  0.00
  YS02001649YS02001757    1.00   0.00  0.00  0.00  0.89  0.11  0.00  0.00  0.43  0.00
  YS02001652YS02001649    1.00   0.00  0.00  0.00  0.97  0.03  0.00  0.00  0.73  0.00
  YS02001655YS02001652    1.00   0.00  0.00  0.00  0.21  0.01  0.00  0.79  0.05  0.00
  YS02001658YS02001655    1.00   0.00  0.14  0.00  0.68  0.18  0.00  0.00  0.66  0.00
  YS02001661YS02001658    1.00   0.14  0.00  0.00  0.52  0.34  0.00  0.00  0.69  0.00
  YS02001664YS02001661    1.00   0.13  0.00  0.00  0.78  0.09  0.00  0.00  0.84  0.00
  YS02001745YS02001748    1.00   0.00  0.00  0.00  0.12  0.01  0.00  0.87  0.05  0.00
  YS02001748YS02001751    1.00   0.00  0.00  0.00  0.85  0.15  0.00  0.00  0.77  0.00
  YS02001751YS02001754    1.00   0.00  0.00  0.00  0.19  0.00  0.00  0.80  0.04  0.00
  YS02001754YS02001757    1.00   0.00  0.00  0.00  1.00  0.00  0.00  0.00  0.79  0.00
  YS02001757CaochengTiaoxuchi    1.00   0.00  0.00  0.00  0.99  0.01  0.00  0.00  0.61  0.00
  YS02001759YS02001757    1.00   0.00  0.00  0.00  1.00  0.00  0.00  0.00  0.52  0.00
  YS02001762YS02001759    1.00   0.00  0.00  0.00  1.00  0.00  0.00  0.00  0.06  0.00
  YS02001765YS02001762    1.00   0.00  0.00  0.00  1.00  0.00  0.00  0.00  0.66  0.00
  YS02001767YS02001765    1.00   0.00  0.00  0.00  1.00  0.00  0.00  0.00  0.01  0.00
  YS02001770YS02001767    1.00   0.00  0.00  0.00  1.00  0.00  0.00  0.00  0.00  0.00
  YS02001774YS02001770    1.00   0.00  0.13  0.00  0.70  0.00  0.17  0.00  0.03  0.00
  YS02001779YS02001774    1.00   0.00  0.00  0.00  1.00  0.00  0.00  0.00  0.76  0.00
  YS02001783YS02001784    1.00   0.00  0.18  0.00  0.82  0.00  0.00  0.00  0.55  0.00
  YS02001784YS02001785    1.00   0.00  0.00  0.00  1.00  0.00  0.00  0.00  0.16  0.00
  YS02001786YS02001788    1.00   0.00  0.00  0.00  0.80  0.20  0.00  0.00  0.00  0.00
  YS02001788YS02001790    1.00   0.00  0.00  0.00  0.22  0.78  0.00  0.00  0.80  0.00
  YS02001790YS02001791    1.00   0.00  0.00  0.00  0.01  0.99  0.00  0.00  0.16  0.00
  YS02001791YS02001793    1.00   0.00  0.00  0.00  0.00  1.00  0.00  0.00  0.01  0.00
  YS02001793JiankangQianchi    1.00   0.00  0.00  0.00  0.99  0.01  0.00  0.00  0.93  0.00
  YS02001882YS02001884    1.00   0.15  0.01  0.00  0.84  0.00  0.00  0.00  0.00  0.00
  YS02001884YS02001887    1.00   0.06  0.05  0.00  0.89  0.00  0.00  0.00  0.00  0.00
  YS02001887YS02001890    1.00   0.00  0.00  0.00  0.97  0.00  0.03  0.00  0.00  0.00
  YS02001890YS02001895    1.00   0.00  0.16  0.00  0.84  0.00  0.00  0.00  0.00  0.00
  YS02001895YS02001898    1.00   0.16  0.00  0.00  0.82  0.00  0.02  0.00  0.00  0.00
  YS02001898YS02001901    1.00   0.16  0.00  0.00  0.84  0.00  0.00  0.00  0.01  0.00
  YS02001901YS02001904    1.00   0.16  0.00  0.00  0.84  0.00  0.00  0.00  0.00  0.00
  YS02001904YS02001907    1.00   0.00  0.16  0.00  0.84  0.00  0.00  0.00  0.00  0.00
  YS02001907YS02006553    1.00   0.00  0.02  0.00  0.98  0.00  0.00  0.00  0.00  0.00
  YS02001910YS02001907    1.00   0.00  0.00  0.00  0.97  0.00  0.00  0.03  0.12  0.00
  YS02001915YS02001910    1.00   0.00  0.00  0.00  0.97  0.03  0.00  0.00  0.15  0.00
  YS02001918YS02001915    1.00   0.00  0.01  0.00  0.98  0.02  0.00  0.00  0.74  0.00
  YS02001920YS02001918    1.00   0.00  0.01  0.00  0.99  0.00  0.00  0.00  0.00  0.00
  YS02001923YS02001920    1.00   0.00  0.00  0.00  1.00  0.00  0.00  0.00  0.92  0.00
  YS02001926YS02001923    1.00   0.00  0.07  0.00  0.07  0.00  0.86  0.00  0.00  0.00
  YS02001929YS02001926    1.00   0.00  0.13  0.00  0.87  0.00  0.00  0.00  0.81  0.00
  YS02006553YS02006556    1.00   0.01  0.00  0.00  0.99  0.00  0.00  0.00  0.03  0.00
  YS02006556YS02006558    1.00   0.00  0.00  0.00  1.00  0.00  0.00  0.00  0.00  0.00
  YS02006558YS02006561    1.00   0.17  0.00  0.00  0.06  0.76  0.00  0.00  0.19  0.00
  YS02006561YS02001783    1.00   0.17  0.00  0.00  0.09  0.73  0.00  0.00  0.68  0.00
  YS02163301YS02001633    1.00   0.00  0.15  0.00  0.85  0.00  0.00  0.00  0.00  0.00
  YS02163601YS02164001    1.00   0.00  0.08  0.00  0.92  0.00  0.00  0.00  0.00  0.00
  YS02164001YS02001641    1.00   0.01  0.07  0.00  0.92  0.00  0.00  0.00  0.05  0.00
  
  
  *************************
  Conduit Surcharge Summary
  *************************
  
  ----------------------------------------------------------------------------
                                                           Hours        Hours 
                         --------- Hours Full --------   Above Full   Capacity
  Conduit                Both Ends  Upstream  Dnstream   Normal Flow   Limited
  ----------------------------------------------------------------------------
  WS02003072WS02003073        0.01      0.01      0.01      1.58         0.01
  WS02004404WS02004405        0.01      0.01      0.01      3.35         0.01
  WS02004405WS02004406        0.01      0.01      0.01      0.74         0.01
  WS02006109WS02006110        0.71      0.71      2.16      0.94         0.01
  WS02006110WS02006113        0.01      0.01      2.16      0.01         0.01
  WS02006111WS02006112        0.01      0.01      2.28      0.01         0.01
  WS02006112WS02006115        0.01      0.01      0.87      0.01         0.01
  WS02006228WS02006109        2.15      2.16      2.15      2.38         2.15
  WS02006229WS02006228        2.15      2.15      2.15      2.25         2.13
  WS02006230WS02006229        2.20      2.24      2.20      4.01         2.20
  WS02006231WS02006230        0.75      0.75      1.09      3.68         0.01
  WS02006232WS02006231        0.98      0.98      2.16      1.10         0.01
  WS02006234WS02006232        2.08      2.08      2.16      1.07         1.06
  WS02006235WS02006234        1.58      1.60      2.08      3.57         0.03
  WS02006238WS02006235        2.10      2.10      2.16      0.01         0.01
  WS02006239WS02006238        2.14      2.16      2.15      2.09         1.84
  WS02006240WS02006239        2.12      2.15      2.12      2.09         1.72
  WS02006242WS02006240        2.15      2.15      2.17      2.23         0.01
  WS02006243WS02006242        2.08      2.08      2.16      0.01         0.08
  WS02006245WS02006243        2.07      2.07      2.07      1.31         1.29
  WS02006247WS02006245        2.07      2.07      2.07      3.37         2.05
  WS02006248WS02006247        2.06      2.06      2.07      0.01         0.08
  WS02006249WS02006248        2.06      2.06      2.06      3.33         0.01
  WS02006251WS02006249        2.06      2.06      2.06      2.16         1.94
  WS02006252WS02006251        2.20      2.20      2.21      2.20         0.01
  WS02006256WS02006235        3.54      3.60      5.47      1.42         0.01
  YS02001580YS02001583        0.69      0.69      0.75      0.01         0.01
  YS02001583YS02001586        0.70      0.70      0.84      0.01         0.01
  YS02001586YS02001590        0.85      0.85      0.91      0.01         0.01
  YS02001590YS02001593        0.91      0.91      0.93      0.97         0.01
  YS02001593YS02001596        0.92      0.92      1.03      0.01         0.01
  YS02001596YS02001600        1.07      1.07      1.18      0.01         0.01
  YS02001600YS02001601        1.25      1.25      1.53      0.01         0.01
  YS02001601YS02001602        1.44      1.44      1.56      1.17         0.01
  YS02001602YS02001605        1.38      1.38      1.44      2.27         0.01
  YS02001605YS02001607        1.33      1.38      1.33      1.50         1.33
  YS02001607YS02001610        0.91      0.91      0.94      0.01         0.01
  YS02001610YS02001613        0.91      0.91      0.94      0.01         0.01
  YS02001613YS02001616        0.86      0.86      0.91      0.01         0.01
  YS02001616YS02001619        0.85      0.85      0.86      0.01         0.05
  YS02001619YS02001622        0.85      0.85      0.85      0.90         0.79
  YS02001622YS02001625        0.85      0.85      1.03      0.01         0.01
  YS02001625YS02001629        0.80      0.80      1.03      0.01         0.01
  YS02001629YS02163301        1.03      1.03      1.05      0.03         0.13
  YS02001633YS02163601        1.06      1.06      1.10      0.31         0.28
  YS02001641YS02001644        1.00      1.03      1.00      1.58         0.98
  YS02001644YS02001647        0.80      0.80      1.00      0.04         0.01
  YS02001647YS02001649        0.80      0.80      0.93      0.01         0.01
  YS02001649YS02001757        0.93      0.93      1.01      0.05         0.03
  YS02001652YS02001649        0.75      0.75      0.93      0.01         0.01
  YS02001655YS02001652        0.53      0.53      0.72      0.01         0.01
  YS02001658YS02001655        0.28      0.28      0.53      0.01         0.01
  YS02001661YS02001658        0.10      0.10      0.28      0.01         0.01
  YS02001664YS02001661        0.01      0.01      0.13      0.01         0.01
  YS02001745YS02001748        0.01      0.01      0.22      0.01         0.01
  YS02001748YS02001751        0.25      0.25      0.38      0.01         0.01
  YS02001751YS02001754        0.38      0.38      0.62      0.01         0.01
  YS02001754YS02001757        0.67      0.67      1.01      0.01         0.01
  YS02001757CaochengTiaoxuchi        0.98      1.01      2.06      0.39         0.34
  YS02001759YS02001757        0.91      0.91      1.01      0.07         0.06
  YS02001762YS02001759        0.88      0.88      0.91      0.01         0.02
  YS02001765YS02001762        0.82      0.82      0.88      0.01         0.01
  YS02001767YS02001765        0.79      0.79      0.82      0.01         0.02
  YS02001770YS02001767        0.78      0.78      0.79      0.58         0.52
  YS02001774YS02001770        0.75      0.75      0.85      0.01         0.01
  YS02001779YS02001774        0.61      0.61      0.85      0.01         0.01
  YS02001783YS02001784        0.57      0.60      0.57      0.73         0.57
  YS02001784YS02001785        0.47      0.57      0.47      0.97         0.47
  YS02001786YS02001788        0.01      0.47      0.01      0.83         0.01
  YS02001790YS02001791        0.01      0.01      0.01      0.56         0.01
  YS02001793JiankangQianchi        0.01      0.01      7.70      0.01         0.01
  YS02001882YS02001884        0.54      0.54      0.55      0.01         0.01
  YS02001884YS02001887        0.57      0.57      0.59      0.01         0.01
  YS02001887YS02001890        0.60      0.60      0.61      0.16         0.01
  YS02001890YS02001895        0.53      0.53      0.63      0.01         0.01
  YS02001895YS02001898        0.52      0.52      0.53      0.01         0.01
  YS02001898YS02001901        0.53      0.53      0.57      0.01         0.01
  YS02001901YS02001904        0.56      0.56      0.57      0.01         0.01
  YS02001904YS02001907        0.56      0.56      0.81      0.01         0.01
  YS02001907YS02006553        0.98      0.98      1.06      0.01         0.01
  YS02001910YS02001907        0.63      0.63      0.80      0.01         0.01
  YS02001915YS02001910        0.54      0.54      0.63      0.01         0.01
  YS02001918YS02001915        0.46      0.46      0.54      0.01         0.01
  YS02001920YS02001918        0.46      0.46      0.47      0.01         0.01
  YS02001923YS02001920        0.41      0.41      0.47      0.01         0.01
  YS02001926YS02001923        0.17      0.17      0.19      0.01         0.01
  YS02001929YS02001926        0.02      0.02      0.19      0.01         0.01
  YS02006553YS02006556        0.71      0.71      0.81      0.01         0.01
  YS02006556YS02006558        0.76      0.76      0.83      0.01         0.01
  YS02006558YS02006561        0.50      0.70      0.50      0.92         0.50
  YS02006561YS02001783        0.42      0.42      0.60      0.01         0.01
  YS02163301YS02001633        1.05      1.05      1.08      0.01         0.01
  YS02163601YS02164001        1.02      1.02      1.10      0.05         0.01
  YS02164001YS02001641        1.02      1.02      1.03      0.71         0.67
  
  
  ***************
  Pumping Summary
  ***************
  
  ---------------------------------------------------------------------------------------------------------
                                                  Min       Avg       Max     Total     Power    % Time Off
                        Percent   Number of      Flow      Flow      Flow    Volume     Usage    Pump Curve
  Pump                 Utilized   Start-Ups       LPS       LPS       LPS  10^6 ltr     Kw-hr    Low   High
  ---------------------------------------------------------------------------------------------------------
  CC-R1                   20.32           2      0.00    683.00    683.00     3.998     75.65    0.0    8.7
  CC-R2                   15.24           2      0.00    683.00    683.00     2.998     57.19    0.0   11.6
  CC-S1                   42.20           4      0.00    200.00    200.00     2.431     13.74    0.0    0.0
  CC-S2                   28.26           2      0.00    200.00    200.00     1.628      8.94    0.0    0.0
  JK-R1                    9.17          14      0.00   1000.00   1000.00     2.642     32.16    0.0    0.0
  JK-R2                    0.16           1      0.00   1000.00   1000.00     0.047      0.36    0.0    0.0
  JK-S                    17.67          25      0.00    300.00    300.00     1.527     19.76    0.0    0.0
  

  Analysis begun on:  Thu Apr 24 00:06:12 2025
  Analysis ended on:  Thu Apr 24 00:06:14 2025
  Total elapsed time: 00:00:02