
  EPA STORM WATER MANAGEMENT MODEL - VERSION 5.2 (Build 5.2.4)
  PYSWMM TOOLKIT API - VERSION v1.0 (2023-11-27)
  ------------------------------------------------------------

  WARNING 04: minimum elevation drop used for Conduit WS02004404WS02004405
  WARNING 03: negative offset ignored for Link YS02001904YS02001907
  
  ****************
  Analysis Options
  ****************
  Flow Units ............... LPS
  Process Models:
    Rainfall/Runoff ........ YES
    RDII ................... NO
    Snowmelt ............... NO
    Groundwater ............ NO
    Flow Routing ........... YES
    Ponding Allowed ........ NO
    Water Quality .......... NO
  Infiltration Method ...... HORTON
  Flow Routing Method ...... DYNWAVE
  Surcharge Method ......... EXTRAN
  Starting Date ............ 08/28/2015 08:00:00
  Ending Date .............. 08/28/2015 16:00:00
  Antecedent Dry Days ...... 8.0
  Report Time Step ......... 00:01:00
  Wet Time Step ............ 00:01:00
  Dry Time Step ............ 00:01:00
  Routing Time Step ........ 30.00 sec
  Variable Time Step ....... YES
  Maximum Trials ........... 8
  Number of Threads ........ 4
  Head Tolerance ........... 0.001500 m
  
  
  **************************        Volume         Depth
  Runoff Quantity Continuity     hectare-m            mm
  **************************     ---------       -------
  Total Precipitation ......         1.966        59.279
  Evaporation Loss .........         0.000         0.000
  Infiltration Loss ........         0.101         3.059
  Surface Runoff ...........         1.832        55.236
  Final Storage ............         0.033         0.996
  Continuity Error (%) .....        -0.020
  
  
  **************************        Volume        Volume
  Flow Routing Continuity        hectare-m      10^6 ltr
  **************************     ---------     ---------
  Dry Weather Inflow .......         0.025         0.251
  Wet Weather Inflow .......         1.832        18.320
  Groundwater Inflow .......         0.000         0.000
  RDII Inflow ..............         0.000         0.000
  External Inflow ..........         0.083         0.834
  External Outflow .........         1.371        13.710
  Flooding Loss ............         0.534         5.340
  Evaporation Loss .........         0.000         0.000
  Exfiltration Loss ........         0.000         0.000
  Initial Stored Volume ....         0.243         2.431
  Final Stored Volume ......         0.280         2.804
  Continuity Error (%) .....        -0.087
  
  
  *************************
  Highest Continuity Errors
  *************************
  Node YS02001884 (5.07%)
  Node YS02001583 (-4.91%)
  
  
  ***************************
  Time-Step Critical Elements
  ***************************
  Link WS02006252WS02006251 (44.91%)
  Link WS02004404WS02004405 (14.28%)
  Link WS02006238WS02006235 (11.56%)
  Link YS02001791YS02001793 (7.91%)
  Link WS02006235WS02006234 (6.17%)
  
  
  ********************************
  Highest Flow Instability Indexes
  ********************************
  Link WS02006113WS02006111 (44)
  Link WS02006111WS02006112 (24)
  Link WS02006252WS02006251 (15)
  Link WS02006238WS02006235 (14)
  Link WS02006256WS02006235 (12)
  
  
  *********************************
  Most Frequent Nonconverging Nodes
  *********************************
  Node CC-1 (11.65%)
  Node CC-2 (11.65%)
  Node JK-1 (11.65%)
  Node JK-2 (11.65%)
  Node WSC (11.65%)
  
  
  *************************
  Routing Time Step Summary
  *************************
  Minimum Time Step           :     0.00 sec
  Average Time Step           :     2.04 sec
  Maximum Time Step           :     6.43 sec
  % of Time in Steady State   :     0.00
  Average Iterations per Step :     2.99
  % of Steps Not Converging   :    11.65
  Time Step Frequencies       :
     30.000 - 13.228 sec      :     0.00 %
     13.228 -  5.833 sec      :     8.34 %
      5.833 -  2.572 sec      :    20.30 %
      2.572 -  1.134 sec      :    20.19 %
      1.134 -  0.500 sec      :    51.17 %
  
  
  ***************************
  Subcatchment Runoff Summary
  ***************************
  
  ------------------------------------------------------------------------------------------------------------------------------
                            Total      Total      Total      Total     Imperv       Perv      Total       Total     Peak  Runoff
                           Precip      Runon       Evap      Infil     Runoff     Runoff     Runoff      Runoff   Runoff   Coeff
  Subcatchment                 mm         mm         mm         mm         mm         mm         mm    10^6 ltr      LPS
  ------------------------------------------------------------------------------------------------------------------------------
  sub60                     59.28       0.00       0.00       1.82      50.96       5.30      56.26        0.74   510.21   0.949
  sub61                     59.28       0.00       0.00       2.64      48.07       7.44      55.51        1.02   709.55   0.936
  sub62                     59.28       0.00       0.00       1.21      53.25       3.53      56.78        1.56   997.70   0.958
  sub63                     59.28       0.00       0.00       4.92      41.12      12.28      53.39        1.21   807.96   0.901
  sub64                     59.28       0.00       0.00       2.48      49.18       6.41      55.59        1.34   817.06   0.938
  sub65                     59.28       0.00       0.00       2.15      50.32       5.56      55.88        1.54   911.82   0.943
  sub66                     59.28       0.00       0.00       6.11      41.01      11.08      52.09        2.43  1224.31   0.879
  sub67                     59.28       0.00       0.00       1.16      53.29       3.58      56.88        1.06   761.37   0.959
  sub68                     59.28       0.00       0.00       2.19      49.79       6.11      55.90        1.54  1024.81   0.943
  sub69                     59.28       0.00       0.00       1.98      50.27       6.92      57.19        2.12  1210.70   0.965
  sub70                     59.28       0.00       0.00       6.60      38.96      13.55      52.51        1.52   687.14   0.886
  sub71                     59.28       0.00       0.00       1.25      53.21       3.50      56.70        1.48   880.61   0.957
  sub72                     59.28       0.00       0.00       1.11      53.72       3.04      56.76        0.78   430.02   0.958
  
  
  ******************
  Node Depth Summary
  ******************
  
  ---------------------------------------------------------------------------------
                                 Average  Maximum  Maximum  Time of Max    Reported
                                   Depth    Depth      HGL   Occurrence   Max Depth
  Node                 Type       Meters   Meters   Meters  days hr:min      Meters
  ---------------------------------------------------------------------------------
  WS02003060           JUNCTION     0.23     0.38     5.32     0  03:16        0.38
  WS02003066           JUNCTION     0.19     0.30     5.85     0  03:12        0.30
  WS02003067           JUNCTION     0.50     0.70     6.02     0  03:12        0.70
  WS02003069           JUNCTION     0.26     0.43     5.01     0  03:13        0.43
  WS02003072           JUNCTION     0.32     0.50     4.87     0  03:14        0.50
  WS02003073           JUNCTION     0.18     0.30     4.36     0  03:14        0.30
  WS02004401           JUNCTION     0.58     0.85     6.85     0  03:10        0.85
  WS02004402           JUNCTION     0.61     0.88     6.84     0  03:10        0.88
  WS02004403           JUNCTION     0.64     0.89     6.82     0  03:10        0.89
  WS02004404           JUNCTION     0.71     0.96     6.81     0  03:11        0.96
  WS02004405           JUNCTION     0.71     0.96     6.81     0  03:11        0.96
  WS02004406           JUNCTION     0.72     0.96     6.79     0  03:13        0.96
  WS02004407           JUNCTION     0.17     0.30     6.61     0  03:11        0.30
  WS02004409           JUNCTION     0.38     0.67     6.44     0  03:11        0.67
  WS02004410           JUNCTION     0.41     0.68     6.40     0  03:12        0.68
  WS02004411           JUNCTION     0.43     0.69     6.37     0  03:12        0.69
  WS02004412           JUNCTION     0.45     0.70     6.34     0  03:12        0.70
  WS02004413           JUNCTION     0.61     0.86     6.33     0  03:12        0.86
  WS02006109           JUNCTION     0.65     1.14     7.75     0  02:18        1.06
  WS02006110           JUNCTION     0.65     1.15     7.74     0  02:18        0.98
  WS02006111           JUNCTION     0.17     0.29     6.99     0  03:01        0.29
  WS02006112           JUNCTION     0.74     1.08     6.96     0  02:47        1.07
  WS02006113           JUNCTION     0.27     0.46     7.35     0  02:55        0.46
  WS02006115           JUNCTION     0.46     0.75     6.89     0  03:10        0.75
  WS02006116           JUNCTION     0.55     0.83     6.87     0  02:30        0.83
  WS02006228           JUNCTION     0.64     1.16     7.81     0  02:18        1.09
  WS02006229           JUNCTION     0.61     1.20     7.90     0  02:18        1.08
  WS02006230           JUNCTION     0.61     1.42     8.17     0  02:18        1.15
  WS02006231           JUNCTION     0.41     1.39     8.52     0  02:25        0.93
  WS02006232           JUNCTION     0.55     1.70     8.74     0  02:25        1.20
  WS02006234           JUNCTION     0.47     1.96     9.12     0  02:25        1.26
  WS02006235           JUNCTION     0.51     2.00     9.16     0  02:25        1.45
  WS02006238           JUNCTION     0.54     2.11     9.26     0  02:25        1.50
  WS02006239           JUNCTION     0.50     2.03     9.24     0  02:25        1.53
  WS02006240           JUNCTION     0.47     1.86     9.16     0  02:25        1.50
  WS02006242           JUNCTION     0.54     1.55     8.82     0  02:25        1.52
  WS02006243           JUNCTION     0.45     1.48     8.90     0  02:10        1.33
  WS02006245           JUNCTION     0.45     1.30     8.79     0  02:25        1.25
  WS02006247           JUNCTION     0.48     1.25     8.75     0  02:25        1.19
  WS02006248           JUNCTION     0.44     1.10     8.69     0  02:20        1.09
  WS02006249           JUNCTION     0.47     1.09     8.69     0  02:11        1.09
  WS02006251           JUNCTION     0.47     1.85     9.52     0  02:11        1.19
  WS02006252           JUNCTION     0.35     1.50     9.74     0  00:00        0.72
  WS02006256           JUNCTION     0.99     2.35     9.28     0  00:00        2.35
  WSF200               JUNCTION     0.16     0.29     5.52     0  03:15        0.29
  YS02001580           JUNCTION     0.07     1.05     9.59     0  02:13        0.77
  YS02001583           JUNCTION     0.11     1.00     9.49     0  02:13        0.82
  YS02001586           JUNCTION     0.17     1.13     9.30     0  02:13        1.13
  YS02001590           JUNCTION     0.27     1.40     9.26     0  02:13        1.37
  YS02001593           JUNCTION     0.20     1.34     9.20     0  02:13        1.32
  YS02001596           JUNCTION     0.28     1.69     9.11     0  02:13        1.67
  YS02001600           JUNCTION     0.34     1.87     9.00     0  02:13        1.86
  YS02001601           JUNCTION     0.53     2.06     8.90     0  02:12        2.06
  YS02001602           JUNCTION     0.45     1.87     8.77     0  02:16        1.87
  YS02001605           JUNCTION     0.41     1.78     8.68     0  02:43        1.77
  YS02001607           JUNCTION     0.41     1.66     8.51     0  02:32        1.66
  YS02001610           JUNCTION     0.46     1.68     8.48     0  02:16        1.68
  YS02001613           JUNCTION     0.41     1.67     8.51     0  02:32        1.66
  YS02001616           JUNCTION     0.34     1.61     8.52     0  02:32        1.59
  YS02001619           JUNCTION     0.32     1.61     8.54     0  02:32        1.58
  YS02001622           JUNCTION     0.31     1.58     8.49     0  02:32        1.56
  YS02001625           JUNCTION     0.58     1.78     8.38     0  02:16        1.78
  YS02001629           JUNCTION     0.43     1.85     8.40     0  02:17        1.85
  YS02001633           JUNCTION     0.51     2.02     8.47     0  02:32        1.97
  YS02001641           JUNCTION     0.50     2.00     8.44     0  02:32        1.94
  YS02001644           JUNCTION     0.49     1.92     8.35     0  02:19        1.92
  YS02001647           JUNCTION     0.28     1.76     8.37     0  02:24        1.75
  YS02001649           JUNCTION     0.32     1.99     8.38     0  02:24        1.98
  YS02001652           JUNCTION     0.22     1.84     8.44     0  02:24        1.83
  YS02001655           JUNCTION     0.16     1.67     8.52     0  02:19        1.65
  YS02001658           JUNCTION     0.12     1.56     8.71     0  02:19        1.43
  YS02001661           JUNCTION     0.15     1.24     8.64     0  02:24        1.24
  YS02001664           JUNCTION     0.05     0.52     8.44     0  02:24        0.51
  YS02001745           JUNCTION     0.06     0.81     8.33     0  02:24        0.80
  YS02001748           JUNCTION     0.11     1.44     8.51     0  02:20        1.24
  YS02001751           JUNCTION     0.14     1.48     8.36     0  02:20        1.42
  YS02001754           JUNCTION     0.19     1.70     8.30     0  02:24        1.69
  YS02001757           JUNCTION     0.36     2.03     8.29     0  02:24        2.02
  YS02001759           JUNCTION     0.29     2.01     8.37     0  02:24        2.00
  YS02001762           JUNCTION     0.28     1.98     8.38     0  02:24        1.97
  YS02001765           JUNCTION     0.26     1.94     8.39     0  02:24        1.93
  YS02001767           JUNCTION     0.26     1.91     8.40     0  02:24        1.91
  YS02001770           JUNCTION     0.27     1.92     8.42     0  02:23        1.92
  YS02001774           JUNCTION     0.33     1.98     8.40     0  02:24        1.98
  YS02001779           JUNCTION     0.17     1.68     8.37     0  02:16        1.68
  YS02001783           JUNCTION     0.22     1.24     7.39     0  02:18        1.23
  YS02001784           JUNCTION     0.24     1.12     7.19     0  02:23        1.11
  YS02001786           JUNCTION     0.20     0.88     6.91     0  02:32        0.87
  YS02001788           JUNCTION     0.15     0.62     6.60     0  02:23        0.62
  YS02001790           JUNCTION     0.17     0.73     6.37     0  02:23        0.72
  YS02001791           JUNCTION     0.11     0.44     5.91     0  02:23        0.42
  YS02001793           JUNCTION     0.06     0.30     5.13     0  02:20        0.29
  YS02001882           JUNCTION     0.28     1.69     8.40     0  02:18        1.64
  YS02001884           JUNCTION     0.38     1.78     8.40     0  02:18        1.74
  YS02001887           JUNCTION     0.45     1.84     8.38     0  02:18        1.82
  YS02001890           JUNCTION     0.48     1.81     8.32     0  02:18        1.81
  YS02001895           JUNCTION     0.25     1.57     8.31     0  02:26        1.56
  YS02001898           JUNCTION     0.26     1.57     8.30     0  02:18        1.56
  YS02001901           JUNCTION     0.38     1.68     8.29     0  02:18        1.67
  YS02001904           JUNCTION     0.36     1.64     8.27     0  02:18        1.64
  YS02001907           JUNCTION     0.68     1.96     8.25     0  02:18        1.96
  YS02001910           JUNCTION     0.48     1.98     8.48     0  02:19        1.87
  YS02001915           JUNCTION     0.28     1.93     8.64     0  02:19        1.75
  YS02001918           JUNCTION     0.15     1.81     8.88     0  02:19        1.43
  YS02001920           JUNCTION     0.22     2.14     9.15     0  02:19        1.50
  YS02001923           JUNCTION     0.11     2.03     9.29     0  02:19        1.26
  YS02001926           JUNCTION     0.15     1.90     9.35     0  02:19        1.08
  YS02001929           JUNCTION     0.08     1.78     9.47     0  02:19        0.83
  YS02006553           JUNCTION     0.68     1.98     8.26     0  02:24        1.97
  YS02006556           JUNCTION     0.65     1.95     8.26     0  02:24        1.95
  YS02006558           JUNCTION     0.70     2.00     8.27     0  02:24        2.00
  YS02006561           JUNCTION     0.14     0.93     7.59     0  02:18        0.90
  YS02163301           JUNCTION     0.45     1.92     8.44     0  02:32        1.90
  YS02163601           JUNCTION     0.55     2.08     8.48     0  02:32        2.00
  YS02164001           JUNCTION     0.48     2.03     8.49     0  02:32        1.93
  CC-1                 OUTFALL      0.00     0.00     0.00     0  00:00        0.00
  CC-2                 OUTFALL      0.00     0.00     0.00     0  00:00        0.00
  JK-1                 OUTFALL      0.00     0.00     0.00     0  00:00        0.00
  JK-2                 OUTFALL      0.00     0.00     0.00     0  00:00        0.00
  WSC                  OUTFALL      0.18     0.30     0.97     0  03:15        0.30
  CC-storage           STORAGE      0.96     1.75     7.25     0  02:45        1.75
  JK-storage           STORAGE      3.28     4.24     5.04     0  02:35        4.21
  
  
  *******************
  Node Inflow Summary
  *******************
  
  -------------------------------------------------------------------------------------------------
                                  Maximum  Maximum                  Lateral       Total        Flow
                                  Lateral    Total  Time of Max      Inflow      Inflow     Balance
                                   Inflow   Inflow   Occurrence      Volume      Volume       Error
  Node                 Type           LPS      LPS  days hr:min    10^6 ltr    10^6 ltr     Percent
  -------------------------------------------------------------------------------------------------
  WS02003060           JUNCTION     16.53   552.31     0  03:15       0.476         5.4       0.059
  WS02003066           JUNCTION      0.00   535.58     0  03:12           0        4.92       0.036
  WS02003067           JUNCTION      0.00   535.55     0  03:12           0        4.93       0.095
  WS02003069           JUNCTION      0.32   552.50     0  03:13     0.00922         5.4       0.097
  WS02003072           JUNCTION      0.00   552.38     0  03:14           0         5.4       0.156
  WS02003073           JUNCTION      1.82   554.10     0  03:14      0.0524        5.44       0.123
  WS02004401           JUNCTION      0.00   540.64     0  03:12           0        5.04       0.227
  WS02004402           JUNCTION      0.00   539.90     0  03:12           0        5.03       0.228
  WS02004403           JUNCTION      0.00   538.87     0  03:12           0        5.02       0.220
  WS02004404           JUNCTION      0.16   538.13     0  03:13     0.00467        5.01       0.187
  WS02004405           JUNCTION      0.04   538.45     0  03:13      0.0011        5.01       0.262
  WS02004406           JUNCTION      0.00   538.13     0  03:13           0        4.99       0.450
  WS02004407           JUNCTION      0.00   536.28     0  03:11           0        4.97       0.039
  WS02004409           JUNCTION      0.00   536.20     0  03:11           0        4.97       0.081
  WS02004410           JUNCTION      0.00   535.94     0  03:11           0        4.96       0.118
  WS02004411           JUNCTION      0.00   535.77     0  03:11           0        4.96       0.140
  WS02004412           JUNCTION      0.00   535.72     0  03:12           0        4.95       0.178
  WS02004413           JUNCTION      0.00   535.60     0  03:12           0        4.94       0.311
  WS02006109           JUNCTION      1.23   557.78     0  02:18      0.0354         5.1       0.224
  WS02006110           JUNCTION      0.00   559.07     0  02:18           0        5.09       0.155
  WS02006111           JUNCTION      0.00   563.48     0  02:55           0        5.08       0.022
  WS02006112           JUNCTION      0.00   543.45     0  03:01           0        5.08       0.421
  WS02006113           JUNCTION      0.00   567.75     0  02:18           0        5.08       0.050
  WS02006115           JUNCTION      0.00   558.39     0  02:54           0        5.06       0.156
  WS02006116           JUNCTION      0.00   541.29     0  02:30           0        5.05       0.111
  WS02006228           JUNCTION      0.00   555.13     0  02:18           0        5.07       0.095
  WS02006229           JUNCTION      0.00   555.69     0  02:18           0        5.08       0.114
  WS02006230           JUNCTION     10.28   599.40     0  03:19       0.296        5.08       0.086
  WS02006231           JUNCTION      0.00   599.72     0  03:19           0        4.78      -0.047
  WS02006232           JUNCTION      0.00   597.50     0  03:19           0        4.79       0.264
  WS02006234           JUNCTION      0.00   586.40     0  03:19           0        4.78      -0.200
  WS02006235           JUNCTION      0.00   568.14     0  03:19           0        4.86       0.155
  WS02006238           JUNCTION      0.00   426.00     0  02:50           0        3.86      -0.132
  WS02006239           JUNCTION      0.00   424.62     0  02:50           0        3.83      -0.070
  WS02006240           JUNCTION      0.00   420.19     0  02:55           0        3.79      -0.048
  WS02006242           JUNCTION      0.00   420.94     0  02:55           0        3.76       0.022
  WS02006243           JUNCTION      0.00   420.57     0  02:50           0        3.74       0.059
  WS02006245           JUNCTION      0.00   421.09     0  02:50           0        3.75       0.288
  WS02006247           JUNCTION      0.00   421.81     0  02:50           0        3.74      -0.003
  WS02006248           JUNCTION      0.00   422.93     0  02:50           0        3.75       0.056
  WS02006249           JUNCTION      0.00   459.02     0  00:00           0           4       0.260
  WS02006251           JUNCTION      0.08   409.78     0  03:22     0.00222           4      -0.034
  WS02006252           JUNCTION      0.00   400.00     0  00:00           0           4      -0.017
  WS02006256           JUNCTION      0.00   300.00     0  00:00           0        1.52      -0.788
  WSF200               JUNCTION      0.00   535.58     0  03:12           0        4.92       0.016
  YS02001580           JUNCTION      0.00    74.69     0  02:13           0     0.00416       2.553
  YS02001583           JUNCTION      0.00   125.69     0  02:13           0      0.0153      -4.681
  YS02001586           JUNCTION    687.14   687.14     0  02:26        1.52        1.53       0.068
  YS02001590           JUNCTION      0.00   318.16     0  02:32           0        1.26      -0.023
  YS02001593           JUNCTION      0.00   318.01     0  02:38           0        1.26       0.013
  YS02001596           JUNCTION      0.00   318.23     0  02:41           0        1.26      -0.005
  YS02001600           JUNCTION      0.00   318.22     0  02:32           0        1.26       0.020
  YS02001601           JUNCTION   1210.70  1528.39     0  02:25        2.12        3.37       0.027
  YS02001602           JUNCTION      0.00   492.42     0  02:12           0        2.21       0.020
  YS02001605           JUNCTION      0.00   492.55     0  02:12           0        2.11       0.024
  YS02001607           JUNCTION      0.00   492.50     0  02:12           0        2.11       0.094
  YS02001610           JUNCTION      0.00   649.51     0  02:26           0        2.25       0.106
  YS02001613           JUNCTION      0.00   494.53     0  02:12           0        1.85       0.090
  YS02001616           JUNCTION      0.00   492.39     0  02:11           0        1.85       0.021
  YS02001619           JUNCTION   1224.31  1224.31     0  02:26        2.43        4.14       0.002
  YS02001622           JUNCTION      0.00   928.26     0  02:25           0           4       0.004
  YS02001625           JUNCTION      0.00  1295.60     0  02:25           0        4.18       0.230
  YS02001629           JUNCTION      0.00   903.13     0  02:15           0        3.28       0.016
  YS02001633           JUNCTION    912.02  1274.92     0  02:15        1.54        4.65       0.076
  YS02001641           JUNCTION      0.00  1272.51     0  02:15           0        4.47       0.066
  YS02001644           JUNCTION    817.10  1612.59     0  02:17        1.34         5.8       0.060
  YS02001647           JUNCTION      0.00  1613.19     0  02:17           0        5.47       0.008
  YS02001649           JUNCTION      0.00  1774.23     0  02:17           0        6.68       0.009
  YS02001652           JUNCTION      0.00   828.73     0  02:25           0        1.22      -0.052
  YS02001655           JUNCTION      0.15   828.42     0  02:25     0.00443        1.22      -0.091
  YS02001658           JUNCTION      0.00   828.83     0  02:25           0        1.21      -0.046
  YS02001661           JUNCTION      0.00   828.46     0  02:25           0        1.21       0.027
  YS02001664           JUNCTION    807.96   807.96     0  02:25        1.21        1.21      -0.011
  YS02001745           JUNCTION    510.21   510.21     0  02:25       0.739        0.74       0.178
  YS02001748           JUNCTION      0.04   514.03     0  02:25      0.0013        0.74      -0.296
  YS02001751           JUNCTION      0.01   513.74     0  02:25    0.000317       0.746       0.116
  YS02001754           JUNCTION      0.26   514.18     0  02:25     0.00749       0.761      -0.166
  YS02001757           JUNCTION      0.00  3014.95     0  02:24           0         9.9       0.009
  YS02001759           JUNCTION    709.59  1246.73     0  02:24        1.02        2.45      -0.003
  YS02001762           JUNCTION      0.00   684.31     0  02:21           0        1.43       0.011
  YS02001765           JUNCTION      0.00   684.28     0  02:21           0        1.44       0.017
  YS02001767           JUNCTION      0.54   685.32     0  02:21      0.0154        1.44       0.022
  YS02001770           JUNCTION    997.86   997.86     0  02:25        1.56        1.61       0.015
  YS02001774           JUNCTION      0.00   479.35     0  02:25           0       0.205       0.676
  YS02001779           JUNCTION      0.01   479.70     0  02:25    0.000144       0.159      -0.271
  YS02001783           JUNCTION      0.00  1163.39     0  02:24           0        3.88       0.007
  YS02001784           JUNCTION      1.06  1164.68     0  02:25      0.0305        3.91       0.013
  YS02001786           JUNCTION      0.06  1164.42     0  02:24     0.00162        3.91       0.019
  YS02001788           JUNCTION      0.07  1165.61     0  02:24     0.00204        3.91       0.007
  YS02001790           JUNCTION      0.15  1178.12     0  02:24     0.00446        3.91       0.014
  YS02001791           JUNCTION      0.00  1294.68     0  02:23           0        3.91      -0.017
  YS02001793           JUNCTION      0.00  1250.75     0  02:23           0        3.91       0.004
  YS02001882           JUNCTION      0.00    34.68     0  02:16           0      0.0124       5.523
  YS02001884           JUNCTION      0.00    47.00     0  02:15           0      0.0481       5.336
  YS02001887           JUNCTION    761.82   761.85     0  02:25        1.07         1.1       0.403
  YS02001890           JUNCTION      0.00   762.17     0  02:25           0        1.06       0.478
  YS02001895           JUNCTION      0.00   516.58     0  02:27           0       0.999       0.157
  YS02001898           JUNCTION      0.00   516.92     0  02:26           0       0.997       0.012
  YS02001901           JUNCTION      0.00   516.81     0  02:25           0           1       0.331
  YS02001904           JUNCTION      0.00   517.42     0  02:26           0           1       0.283
  YS02001907           JUNCTION      0.00  1845.47     0  02:25           0        3.34       0.538
  YS02001910           JUNCTION      0.00  1329.10     0  02:25           0        2.35       0.308
  YS02001915           JUNCTION    880.63  1328.29     0  02:25        1.48        2.38       0.066
  YS02001918           JUNCTION      0.00   450.21     0  02:25           0       0.911       0.022
  YS02001920           JUNCTION      2.87   449.65     0  02:25      0.0827       0.898       0.094
  YS02001923           JUNCTION      0.04   446.39     0  02:25     0.00109       0.803      -0.018
  YS02001926           JUNCTION      0.05   445.94     0  02:25      0.0015       0.788       0.011
  YS02001929           JUNCTION    430.02   430.02     0  02:26        0.78       0.781      -0.078
  YS02006553           JUNCTION      0.00   802.06     0  02:37           0        2.36       0.506
  YS02006556           JUNCTION      0.00   802.18     0  02:37           0        2.37       0.344
  YS02006558           JUNCTION   1025.69  1164.01     0  02:25        1.56        3.91       0.088
  YS02006561           JUNCTION      0.00  1163.54     0  02:24           0        3.88       0.003
  YS02163301           JUNCTION      0.00   905.17     0  02:15           0        3.28       0.050
  YS02163601           JUNCTION      0.11  1274.18     0  02:15     0.00317        4.47       0.112
  YS02164001           JUNCTION      0.00  1273.73     0  02:15           0        4.47       0.055
  CC-1                 OUTFALL       0.00   683.00     0  00:00           0        3.41       0.000
  CC-2                 OUTFALL       0.00   683.00     0  00:00           0        2.53       0.000
  JK-1                 OUTFALL       0.00  1000.00     0  00:00           0        2.29       0.000
  JK-2                 OUTFALL       0.00  1000.00     0  00:00           0      0.0484       0.000
  WSC                  OUTFALL       0.00   553.94     0  03:15           0        5.43       0.000
  CC-storage           STORAGE       0.00  3015.84     0  02:24           0        12.1      -0.056
  JK-storage           STORAGE       0.00  1247.68     0  02:24           0        4.06       0.207
  
  
  **********************
  Node Surcharge Summary
  **********************
  
  Surcharging occurs when water rises above the top of the highest conduit.
  ---------------------------------------------------------------------
                                               Max. Height   Min. Depth
                                   Hours       Above Crown    Below Rim
  Node                 Type      Surcharged         Meters       Meters
  ---------------------------------------------------------------------
  WS02006109           JUNCTION        2.01          0.316        1.504
  WS02006110           JUNCTION        0.78          0.245        1.605
  WS02006112           JUNCTION        0.91          0.076        1.604
  WS02006228           JUNCTION        2.00          0.329        1.871
  WS02006229           JUNCTION        2.01          0.403        2.047
  WS02006230           JUNCTION        0.79          0.342        1.228
  WS02006231           JUNCTION        0.99          0.685        0.845
  WS02006232           JUNCTION        2.03          0.999        0.481
  WS02006234           JUNCTION        1.40          1.240        0.000
  WS02006235           JUNCTION        1.95          1.290        0.000
  WS02006238           JUNCTION        2.01          1.395        0.035
  WS02006239           JUNCTION        1.98          1.290        0.000
  WS02006240           JUNCTION        2.00          1.152        0.238
  WS02006242           JUNCTION        2.01          0.820        0.000
  WS02006243           JUNCTION        1.99          0.770        0.000
  WS02006245           JUNCTION        1.99          0.595        0.255
  WS02006247           JUNCTION        1.99          0.540        0.220
  WS02006248           JUNCTION        1.98          0.380        0.000
  WS02006249           JUNCTION        1.98          0.390        0.000
  WS02006251           JUNCTION        1.09          0.822        0.358
  WS02006252           JUNCTION        2.18          1.100        0.000
  WS02006256           JUNCTION        5.33          2.050        0.000
  YS02001580           JUNCTION        0.54          0.450        0.000
  YS02001583           JUNCTION        0.55          0.356        0.144
  YS02001586           JUNCTION        0.68          0.510        0.000
  YS02001590           JUNCTION        0.76          0.750        0.000
  YS02001593           JUNCTION        0.76          0.721        0.119
  YS02001596           JUNCTION        0.88          0.956        0.114
  YS02001600           JUNCTION        1.03          1.190        0.000
  YS02001601           JUNCTION        1.38          1.440        0.000
  YS02001602           JUNCTION        1.27          1.270        0.000
  YS02001605           JUNCTION        1.21          1.180        0.000
  YS02001607           JUNCTION        0.75          0.664        0.016
  YS02001610           JUNCTION        0.78          0.680        0.000
  YS02001613           JUNCTION        0.75          0.668        0.032
  YS02001616           JUNCTION        0.70          0.610        0.000
  YS02001619           JUNCTION        0.69          0.610        0.000
  YS02001622           JUNCTION        0.69          0.583        0.037
  YS02001625           JUNCTION        0.87          0.780        0.000
  YS02001629           JUNCTION        0.63          0.470        0.000
  YS02001633           JUNCTION        0.90          1.000        0.060
  YS02001641           JUNCTION        0.84          1.005        0.095
  YS02001644           JUNCTION        0.81          0.920        0.000
  YS02001647           JUNCTION        0.61          0.761        0.139
  YS02001649           JUNCTION        0.73          0.995        0.055
  YS02001652           JUNCTION        0.55          0.815        0.315
  YS02001655           JUNCTION        0.40          0.670        0.530
  YS02001658           JUNCTION        0.22          0.565        0.735
  YS02001661           JUNCTION        0.02          0.167        1.223
  YS02001748           JUNCTION        0.17          0.355        0.835
  YS02001751           JUNCTION        0.30          0.481        0.719
  YS02001754           JUNCTION        0.47          0.646        0.504
  YS02001757           JUNCTION        0.80          1.033        0.177
  YS02001759           JUNCTION        0.71          1.007        0.203
  YS02001762           JUNCTION        0.68          0.980        0.170
  YS02001765           JUNCTION        0.64          0.944        0.156
  YS02001767           JUNCTION        0.60          0.910        0.120
  YS02001770           JUNCTION        0.58          0.892        0.028
  YS02001774           JUNCTION        0.66          0.981        0.069
  YS02001779           JUNCTION        0.45          0.680        0.000
  YS02001783           JUNCTION        0.49          0.445        1.155
  YS02001784           JUNCTION        0.46          0.324        1.166
  YS02001786           JUNCTION        0.36          0.078        1.352
  YS02001882           JUNCTION        0.44          0.689        0.141
  YS02001884           JUNCTION        0.44          0.720        0.150
  YS02001887           JUNCTION        0.48          0.787        0.163
  YS02001890           JUNCTION        0.49          0.760        0.000
  YS02001895           JUNCTION        0.42          0.567        0.183
  YS02001898           JUNCTION        0.41          0.537        0.203
  YS02001901           JUNCTION        0.46          0.680        0.190
  YS02001904           JUNCTION        0.46          0.643        0.207
  YS02001907           JUNCTION        0.74          0.950        0.000
  YS02001910           JUNCTION        0.52          0.976        0.124
  YS02001915           JUNCTION        0.43          0.925        0.075
  YS02001918           JUNCTION        0.35          0.810        0.000
  YS02001920           JUNCTION        0.36          1.140        0.000
  YS02001923           JUNCTION        0.06          0.820        0.000
  YS02001926           JUNCTION        0.11          0.900        0.000
  YS02001929           JUNCTION        0.01          0.780        0.000
  YS02006553           JUNCTION        0.75          0.977        0.213
  YS02006556           JUNCTION        0.62          0.913        0.437
  YS02006558           JUNCTION        0.60          0.904        0.496
  YS02006561           JUNCTION        0.31          0.131        1.019
  YS02163301           JUNCTION        0.88          0.924        0.106
  YS02163601           JUNCTION        0.93          1.080        0.000
  YS02164001           JUNCTION        0.84          1.029        0.071
  
  
  *********************
  Node Flooding Summary
  *********************
  
  Flooding refers to all water that overflows a node, whether it ponds or not.
  --------------------------------------------------------------------------
                                                             Total   Maximum
                                 Maximum   Time of Max       Flood    Ponded
                        Hours       Rate    Occurrence      Volume     Depth
  Node                 Flooded       LPS   days hr:min    10^6 ltr    Meters
  --------------------------------------------------------------------------
  WS02006234              0.01     26.08      0  02:25       0.000     0.000
  WS02006235              0.01     41.80      0  02:25       0.000     0.000
  WS02006239              0.01      6.33      0  02:25       0.000     0.000
  WS02006242              0.01     30.75      0  02:25       0.000     0.000
  WS02006243              0.01     79.98      0  02:10       0.000     0.000
  WS02006248              0.02     21.74      0  02:25       0.001     0.000
  WS02006249              1.05    111.39      0  02:12       0.246     0.000
  WS02006252              0.01    245.63      0  00:00       0.000     0.000
  WS02006256              1.41    293.19      0  00:00       0.476     0.000
  YS02001580              0.01     47.23      0  02:13       0.000     0.000
  YS02001586              0.42    369.44      0  02:26       0.261     0.000
  YS02001590              0.01      8.67      0  02:13       0.000     0.000
  YS02001600              0.01      2.67      0  02:13       0.000     0.000
  YS02001601              0.62   1130.55      0  02:25       1.157     0.000
  YS02001602              0.51     62.08      0  02:32       0.105     0.000
  YS02001610              0.46    649.33      0  02:26       0.532     0.000
  YS02001616              0.01      7.05      0  02:32       0.000     0.000
  YS02001619              0.01      7.73      0  02:32       0.000     0.000
  YS02001625              0.43   1295.28      0  02:25       1.060     0.000
  YS02001629              0.06     39.47      0  02:32       0.002     0.000
  YS02001644              0.20    924.84      0  02:25       0.325     0.000
  YS02001779              0.16    479.52      0  02:25       0.140     0.000
  YS02001890              0.15    246.34      0  02:25       0.060     0.000
  YS02001907              0.30   1691.41      0  02:25       0.975     0.000
  YS02001918              0.01    106.37      0  02:19       0.001     0.000
  YS02001920              0.01     23.28      0  02:19       0.000     0.000
  YS02001923              0.01     46.86      0  02:19       0.000     0.000
  YS02001926              0.01     44.19      0  02:19       0.000     0.000
  YS02001929              0.01    204.70      0  02:19       0.000     0.000
  YS02163601              0.01     13.61      0  02:32       0.000     0.000
  
  
  **********************
  Storage Volume Summary
  **********************
  
  ------------------------------------------------------------------------------------------------
                         Average    Avg   Evap  Exfil     Maximum    Max    Time of Max    Maximum
                          Volume   Pcnt   Pcnt   Pcnt      Volume   Pcnt     Occurrence    Outflow
  Storage Unit           1000 m³   Full   Loss   Loss     1000 m³   Full    days hr:min        LPS
  ------------------------------------------------------------------------------------------------
  CC-storage               2.684   41.9    0.0    0.0       4.876   76.1       0  02:45    1783.53
  JK-storage               0.165   56.6    0.0    0.0       0.213   73.2       0  02:35    2300.00
  
  
  ***********************
  Outfall Loading Summary
  ***********************
  
  -----------------------------------------------------------
                         Flow       Avg       Max       Total
                         Freq      Flow      Flow      Volume
  Outfall Node           Pcnt       LPS       LPS    10^6 ltr
  -----------------------------------------------------------
  CC-1                  19.31    683.00    683.00       3.412
  CC-2                  14.52    683.00    683.00       2.526
  JK-1                  10.75   1000.00   1000.00       2.290
  JK-2                   0.15   1000.00   1000.00       0.048
  WSC                   99.96    250.20    553.94       5.434
  -----------------------------------------------------------
  System                28.94   3616.20   3366.23      13.710
  
  
  ********************
  Link Flow Summary
  ********************
  
  -----------------------------------------------------------------------------
                                 Maximum  Time of Max   Maximum    Max/    Max/
                                  |Flow|   Occurrence   |Veloc|    Full    Full
  Link                 Type          LPS  days hr:min     m/sec    Flow   Depth
  -----------------------------------------------------------------------------
  1                    CONDUIT    553.94     0  03:15      2.82    0.19    0.30
  WS02003060WS02003069 CONDUIT    552.18     0  03:13      1.64    0.22    0.34
  WS02003066WSF200     CONDUIT    535.58     0  03:12      2.85    0.09    0.22
  WS02003067WS02003066 CONDUIT    535.58     0  03:12      1.21    0.17    0.42
  WS02003069WS02003072 CONDUIT    552.38     0  03:14      1.37    0.27    0.39
  WS02003072WS02003073 CONDUIT    552.27     0  03:14      1.43    1.19    0.37
  WS02004401WS02004402 CONDUIT    539.90     0  03:12      1.23    0.65    0.86
  WS02004402WS02004403 CONDUIT    538.87     0  03:12      1.24    0.77    0.88
  WS02004403WS02004404 CONDUIT    537.97     0  03:13      1.17    0.39    0.93
  WS02004404WS02004405 CONDUIT    538.41     0  03:13      1.43    5.27    0.96
  WS02004405WS02004406 CONDUIT    538.13     0  03:13      1.39    1.06    0.96
  WS02004406WS02004407 CONDUIT    536.28     0  03:11      1.04    0.24    0.63
  WS02004407WS02004409 CONDUIT    536.20     0  03:11      1.49    0.19    0.48
  WS02004409WS02004410 CONDUIT    535.94     0  03:11      0.98    0.69    0.67
  WS02004410WS02004411 CONDUIT    535.77     0  03:11      0.94    0.73    0.69
  WS02004411WS02004412 CONDUIT    535.72     0  03:12      0.92    0.76    0.69
  WS02004412WS02004413 CONDUIT    535.60     0  03:12      0.87    0.36    0.78
  WS02004413WS02003067 CONDUIT    535.55     0  03:12      1.11    0.23    0.59
  WS02006109WS02006110 CONDUIT    559.07     0  02:18      1.11    1.07    1.00
  WS02006110WS02006113 CONDUIT    567.75     0  02:18      1.37    0.52    0.79
  WS02006111WS02006112 CONDUIT    543.45     0  03:01      1.96    0.26    0.67
  WS02006112WS02006115 CONDUIT    558.39     0  02:54      0.79    0.33    0.87
  WS02006113WS02006111 CONDUIT    563.48     0  02:55      2.47    0.68    0.46
  WS02006115WS02006116 CONDUIT    541.29     0  02:30      1.19    0.69    0.76
  WS02006116WS02004401 CONDUIT    540.64     0  03:12      1.22    0.75    0.84
  WS02006228WS02006109 CONDUIT    556.55     0  02:18      1.11    2.43    1.00
  WS02006229WS02006228 CONDUIT    555.13     0  02:18      1.14    1.84    1.00
  WS02006230WS02006229 CONDUIT    555.69     0  02:18      1.44   12.37    1.00
  WS02006231WS02006230 CONDUIT    589.12     0  03:19      1.60    8.94    1.00
  WS02006232WS02006231 CONDUIT    599.72     0  03:19      1.56    1.26    1.00
  WS02006234WS02006232 CONDUIT    597.50     0  03:19      1.55    1.21    1.00
  WS02006235WS02006234 CONDUIT    586.40     0  03:19      1.52    6.19    1.00
  WS02006238WS02006235 CONDUIT    427.20     0  02:45      1.46    0.95    1.00
  WS02006239WS02006238 CONDUIT    426.00     0  02:50      1.11    1.36    1.00
  WS02006240WS02006239 CONDUIT    424.62     0  02:50      1.24    1.34    1.00
  WS02006242WS02006240 CONDUIT    420.19     0  02:55      1.13    1.67    1.00
  WS02006243WS02006242 CONDUIT    420.94     0  02:55      1.40    0.90    1.00
  WS02006245WS02006243 CONDUIT    420.57     0  02:50      1.45    1.24    1.00
  WS02006247WS02006245 CONDUIT    421.09     0  02:50      1.43    3.34    1.00
  WS02006248WS02006247 CONDUIT    421.81     0  02:50      1.44    0.92    1.00
  WS02006249WS02006248 CONDUIT    422.93     0  02:50      1.36    2.32    1.00
  WS02006251WS02006249 CONDUIT    459.02     0  00:00      1.99    1.32    1.00
  WS02006252WS02006251 CONDUIT    409.71     0  03:22     25.30    1.50    1.00
  WS02006256WS02006235 CONDUIT    288.91     0  00:00      4.23    3.06    1.00
  WSF200WS02003060     CONDUIT    535.79     0  03:15      2.07    0.12    0.28
  YS02001580YS02001583 CONDUIT     74.69     0  02:13      0.53    0.29    1.00
  YS02001583YS02001586 CONDUIT    125.69     0  02:13      0.51    0.19    1.00
  YS02001586YS02001590 CONDUIT    318.16     0  02:32      1.24    0.56    1.00
  YS02001590YS02001593 CONDUIT    318.01     0  02:38      1.12    2.00    1.00
  YS02001593YS02001596 CONDUIT    318.23     0  02:41      1.72    0.50    1.00
  YS02001596YS02001600 CONDUIT    318.22     0  02:32      1.26    0.62    1.00
  YS02001600YS02001601 CONDUIT    318.37     0  02:32      1.13    0.55    1.00
  YS02001601YS02001602 CONDUIT    492.42     0  02:12      1.74    1.78    1.00
  YS02001602YS02001605 CONDUIT    492.55     0  02:12      1.74   10.42    1.00
  YS02001605YS02001607 CONDUIT    492.50     0  02:12      1.74    2.70    1.00
  YS02001607YS02001610 CONDUIT    494.15     0  02:12      0.63    0.47    1.00
  YS02001610YS02001613 CONDUIT    494.53     0  02:12      0.63    0.57    1.00
  YS02001613YS02001616 CONDUIT    492.39     0  02:11      0.63    0.42    1.00
  YS02001616YS02001619 CONDUIT    493.26     0  02:12      0.66    0.86    1.00
  YS02001619YS02001622 CONDUIT    928.26     0  02:25      1.18    1.37    1.00
  YS02001622YS02001625 CONDUIT    928.61     0  02:25      1.18    0.50    1.00
  YS02001625YS02001629 CONDUIT    903.13     0  02:15      1.15    0.43    1.00
  YS02001629YS02163301 CONDUIT    905.17     0  02:15      1.15    1.11    1.00
  YS02001633YS02163601 CONDUIT   1274.07     0  02:15      1.62    1.34    1.00
  YS02001641YS02001644 CONDUIT   1271.47     0  02:15      1.62    4.11    1.00
  YS02001644YS02001647 CONDUIT   1613.19     0  02:17      2.09    0.95    1.00
  YS02001647YS02001649 CONDUIT   1616.29     0  02:17      2.24    0.85    1.00
  YS02001649YS02001757 CONDUIT   1765.06     0  02:17      2.28    1.07    1.00
  YS02001652YS02001649 CONDUIT    829.39     0  02:25      1.06    0.41    1.00
  YS02001655YS02001652 CONDUIT    828.73     0  02:25      1.24    0.40    1.00
  YS02001658YS02001655 CONDUIT    828.27     0  02:25      1.82    0.35    1.00
  YS02001661YS02001658 CONDUIT    828.83     0  02:25      2.15    0.33    1.00
  YS02001664YS02001661 CONDUIT    828.46     0  02:25      2.07    0.26    0.76
  YS02001745YS02001748 CONDUIT    513.98     0  02:25      2.00    0.20    0.91
  YS02001748YS02001751 CONDUIT    513.73     0  02:25      1.58    0.26    1.00
  YS02001751YS02001754 CONDUIT    513.92     0  02:25      1.40    0.25    1.00
  YS02001754YS02001757 CONDUIT    514.35     0  02:25      0.65    0.21    1.00
  YS02001757CaochengTiaoxuchi CONDUIT   3015.84     0  02:24      3.84    1.31    1.00
  YS02001759YS02001757 CONDUIT   1245.76     0  02:23      1.59    0.89    1.00
  YS02001762YS02001759 CONDUIT    686.02     0  02:21      0.87    0.79    1.00
  YS02001765YS02001762 CONDUIT    684.31     0  02:21      0.87    0.64    1.00
  YS02001767YS02001765 CONDUIT    684.28     0  02:21      0.87    0.86    1.00
  YS02001770YS02001767 CONDUIT    684.78     0  02:21      0.87    2.71    1.00
  YS02001774YS02001770 CONDUIT    479.35     0  02:25      0.61    0.31    1.00
  YS02001779YS02001774 CONDUIT    479.70     0  02:25      0.61    0.24    1.00
  YS02001783YS02001784 CONDUIT   1163.62     0  02:25      2.31    1.60    1.00
  YS02001784YS02001785 CONDUIT   1164.37     0  02:24      2.32    2.71    1.00
  YS02001786YS02001788 CONDUIT   1165.54     0  02:24      2.49    2.25    0.89
  YS02001788YS02001790 CONDUIT   1177.96     0  02:24      2.72    0.87    0.84
  YS02001790YS02001791 CONDUIT   1294.68     0  02:23      3.44    1.41    0.70
  YS02001791YS02001793 CONDUIT   1250.75     0  02:23      6.49    0.54    0.45
  YS02001793JiankangQianchi CONDUIT   1247.68     0  02:24      2.41    0.10    0.65
  YS02001882YS02001884 CONDUIT     34.68     0  02:16      0.12    0.04    1.00
  YS02001884YS02001887 CONDUIT     47.00     0  02:15      0.08    0.06    1.00
  YS02001887YS02001890 CONDUIT    762.17     0  02:25      0.97    1.30    1.00
  YS02001890YS02001895 CONDUIT    516.58     0  02:27      0.66    0.24    1.00
  YS02001895YS02001898 CONDUIT    516.92     0  02:26      0.66    0.90    1.00
  YS02001898YS02001901 CONDUIT    516.81     0  02:25      0.66    0.33    1.00
  YS02001901YS02001904 CONDUIT    517.42     0  02:26      0.66    0.80    1.00
  YS02001904YS02001907 CONDUIT    516.50     0  02:27      0.66    0.18    1.00
  YS02001907YS02006553 CONDUIT    802.06     0  02:37      0.89    0.94    1.00
  YS02001910YS02001907 CONDUIT   1329.12     0  02:25      1.69    0.75    1.00
  YS02001915YS02001910 CONDUIT   1329.10     0  02:25      1.69    0.66    1.00
  YS02001918YS02001915 CONDUIT    450.29     0  02:25      0.57    0.25    1.00
  YS02001920YS02001918 CONDUIT    450.21     0  02:25      0.67    0.44    1.00
  YS02001923YS02001920 CONDUIT    446.78     0  02:25      0.69    0.20    1.00
  YS02001926YS02001923 CONDUIT    446.35     0  02:25      0.94    0.64    1.00
  YS02001929YS02001926 CONDUIT    445.89     0  02:25      1.08    0.21    1.00
  YS02006553YS02006556 CONDUIT    802.18     0  02:37      1.02    0.69    1.00
  YS02006556YS02006558 CONDUIT    804.89     0  02:37      1.02    0.64    1.00
  YS02006558YS02006561 CONDUIT   1163.54     0  02:24      4.12    2.57    1.00
  YS02006561YS02001783 CONDUIT   1163.39     0  02:24      2.31    0.60    1.00
  YS02163301YS02001633 CONDUIT    906.04     0  02:15      1.15    0.85    1.00
  YS02163601YS02164001 CONDUIT   1273.73     0  02:15      1.62    1.13    1.00
  YS02164001YS02001641 CONDUIT   1272.51     0  02:15      1.62    1.74    1.00
  CC-R1                PUMP       683.00     0  00:00              1.00
  CC-R2                PUMP       683.00     0  00:00              1.00
  CC-S1                PUMP       200.00     0  00:00              1.00
  CC-S2                PUMP       200.00     0  00:00              1.00
  JK-R1                PUMP      1000.00     0  00:00              1.00
  JK-R2                PUMP      1000.00     0  00:00              1.00
  JK-S                 PUMP       300.00     0  00:00              1.00
  
  
  ***************************
  Flow Classification Summary
  ***************************
  
  -------------------------------------------------------------------------------------
                      Adjusted    ---------- Fraction of Time in Flow Class ---------- 
                       /Actual         Up    Down  Sub   Sup   Up    Down  Norm  Inlet 
  Conduit               Length    Dry  Dry   Dry   Crit  Crit  Crit  Crit  Ltd   Ctrl  
  -------------------------------------------------------------------------------------
  1                       1.00   0.00  0.00  0.00  0.00  1.00  0.00  0.00  0.47  0.00
  WS02003060WS02003069    1.00   0.00  0.00  0.00  0.97  0.03  0.00  0.00  0.71  0.00
  WS02003066WSF200        1.00   0.06  0.00  0.00  0.00  0.94  0.00  0.00  0.81  0.00
  WS02003067WS02003066    1.00   0.05  0.01  0.00  0.94  0.00  0.00  0.00  0.00  0.00
  WS02003069WS02003072    1.00   0.00  0.00  0.00  0.99  0.01  0.00  0.00  0.73  0.00
  WS02003072WS02003073    1.00   0.00  0.00  0.00  0.00  0.00  0.00  1.00  0.00  0.00
  WS02004401WS02004402    1.00   0.02  0.00  0.00  0.98  0.00  0.00  0.00  0.00  0.00
  WS02004402WS02004403    1.00   0.02  0.00  0.00  0.98  0.00  0.00  0.00  0.00  0.00
  WS02004403WS02004404    1.00   0.00  0.03  0.00  0.97  0.00  0.00  0.00  0.00  0.00
  WS02004404WS02004405    1.00   0.00  0.00  0.00  1.00  0.00  0.00  0.00  0.01  0.00
  WS02004405WS02004406    1.00   0.00  0.00  0.00  1.00  0.00  0.00  0.00  0.00  0.00
  WS02004406WS02004407    1.00   0.00  0.03  0.00  0.96  0.00  0.00  0.00  0.00  0.00
  WS02004407WS02004409    1.00   0.04  0.00  0.00  0.96  0.01  0.00  0.00  0.96  0.00
  WS02004409WS02004410    1.00   0.04  0.00  0.00  0.96  0.00  0.00  0.00  0.00  0.00
  WS02004410WS02004411    1.00   0.04  0.00  0.00  0.96  0.00  0.00  0.00  0.00  0.00
  WS02004411WS02004412    1.00   0.04  0.00  0.00  0.96  0.00  0.00  0.00  0.00  0.00
  WS02004412WS02004413    1.00   0.04  0.00  0.00  0.96  0.00  0.00  0.00  0.00  0.00
  WS02004413WS02003067    1.00   0.04  0.01  0.00  0.00  0.00  0.95  0.00  0.00  0.00
  WS02006109WS02006110    1.00   0.00  0.01  0.00  0.98  0.00  0.01  0.00  0.00  0.00
  WS02006110WS02006113    1.00   0.01  0.01  0.00  0.98  0.00  0.00  0.00  0.00  0.00
  WS02006111WS02006112    1.00   0.02  0.00  0.00  0.98  0.00  0.00  0.00  0.98  0.00
  WS02006112WS02006115    1.00   0.02  0.00  0.00  0.97  0.00  0.00  0.00  0.00  0.00
  WS02006113WS02006111    1.00   0.02  0.00  0.00  0.00  0.98  0.00  0.00  0.14  0.00
  WS02006115WS02006116    1.00   0.02  0.00  0.00  0.97  0.00  0.00  0.01  0.00  0.00
  WS02006116WS02004401    1.00   0.02  0.00  0.00  0.98  0.00  0.00  0.00  0.00  0.00
  WS02006228WS02006109    1.00   0.00  0.00  0.00  1.00  0.00  0.00  0.00  0.00  0.00
  WS02006229WS02006228    1.00   0.00  0.00  0.00  0.99  0.00  0.00  0.01  0.00  0.00
  WS02006230WS02006229    1.00   0.00  0.00  0.00  0.99  0.00  0.00  0.01  0.00  0.00
  WS02006231WS02006230    1.00   0.00  0.00  0.00  0.27  0.00  0.73  0.00  0.00  0.00
  WS02006232WS02006231    1.00   0.00  0.00  0.00  0.98  0.00  0.01  0.00  0.00  0.00
  WS02006234WS02006232    1.00   0.00  0.00  0.00  1.00  0.00  0.00  0.00  0.21  0.00
  WS02006235WS02006234    1.00   0.00  0.00  0.00  0.74  0.00  0.26  0.00  0.00  0.00
  WS02006238WS02006235    1.00   0.00  0.00  0.00  1.00  0.00  0.00  0.00  0.00  0.00
  WS02006239WS02006238    1.00   0.00  0.00  0.00  1.00  0.00  0.00  0.00  0.33  0.00
  WS02006240WS02006239    1.00   0.00  0.00  0.00  0.61  0.00  0.00  0.39  0.03  0.00
  WS02006242WS02006240    1.00   0.00  0.00  0.00  0.99  0.00  0.01  0.00  0.00  0.00
  WS02006243WS02006242    1.00   0.00  0.00  0.00  0.99  0.00  0.00  0.01  0.53  0.00
  WS02006245WS02006243    1.00   0.00  0.00  0.00  0.68  0.00  0.00  0.32  0.01  0.00
  WS02006247WS02006245    1.00   0.00  0.00  0.00  0.99  0.00  0.00  0.01  0.00  0.00
  WS02006248WS02006247    1.00   0.00  0.00  0.00  0.99  0.00  0.00  0.01  0.24  0.00
  WS02006249WS02006248    1.00   0.00  0.00  0.00  0.46  0.00  0.54  0.00  0.00  0.00
  WS02006251WS02006249    1.00   0.00  0.00  0.00  1.00  0.00  0.00  0.00  0.55  0.00
  WS02006252WS02006251    1.00   0.00  0.58  0.00  0.14  0.00  0.29  0.00  0.00  0.00
  WS02006256WS02006235    1.00   0.00  0.00  0.00  1.00  0.00  0.00  0.00  0.00  0.00
  WSF200WS02003060        1.00   0.00  0.06  0.00  0.40  0.53  0.00  0.00  0.54  0.00
  YS02001580YS02001583    1.00   0.27  0.54  0.00  0.19  0.00  0.00  0.00  0.63  0.00
  YS02001583YS02001586    1.00   0.41  0.35  0.00  0.24  0.00  0.00  0.00  0.63  0.00
  YS02001586YS02001590    1.00   0.13  0.00  0.00  0.44  0.04  0.00  0.39  0.39  0.00
  YS02001590YS02001593    1.00   0.13  0.01  0.00  0.11  0.00  0.76  0.00  0.00  0.00
  YS02001593YS02001596    1.00   0.13  0.00  0.00  0.13  0.01  0.00  0.73  0.02  0.00
  YS02001596YS02001600    1.00   0.14  0.00  0.00  0.20  0.02  0.00  0.65  0.05  0.00
  YS02001600YS02001601    1.00   0.13  0.01  0.00  0.86  0.00  0.00  0.00  0.60  0.00
  YS02001601YS02001602    1.00   0.13  0.01  0.00  0.87  0.00  0.00  0.00  0.00  0.00
  YS02001602YS02001605    1.00   0.13  0.00  0.00  0.86  0.00  0.00  0.00  0.00  0.00
  YS02001605YS02001607    1.00   0.14  0.00  0.00  0.86  0.00  0.00  0.00  0.00  0.00
  YS02001607YS02001610    1.00   0.13  0.01  0.00  0.86  0.00  0.00  0.00  0.01  0.00
  YS02001610YS02001613    1.00   0.13  0.00  0.00  0.87  0.00  0.00  0.00  0.00  0.00
  YS02001613YS02001616    1.00   0.13  0.00  0.00  0.87  0.00  0.00  0.00  0.00  0.00
  YS02001616YS02001619    1.00   0.13  0.00  0.00  0.87  0.00  0.00  0.00  0.00  0.00
  YS02001619YS02001622    1.00   0.13  0.00  0.00  0.87  0.00  0.00  0.00  0.28  0.00
  YS02001622YS02001625    1.00   0.13  0.00  0.00  0.87  0.00  0.00  0.00  0.04  0.00
  YS02001625YS02001629    1.00   0.13  0.05  0.00  0.16  0.00  0.66  0.00  0.00  0.00
  YS02001629YS02163301    1.00   0.15  0.01  0.00  0.84  0.00  0.00  0.00  0.00  0.00
  YS02001633YS02163601    1.00   0.00  0.01  0.00  0.99  0.00  0.00  0.00  0.15  0.00
  YS02001641YS02001644    1.00   0.00  0.01  0.00  0.99  0.00  0.00  0.00  0.00  0.00
  YS02001644YS02001647    1.00   0.00  0.17  0.00  0.83  0.00  0.00  0.00  0.00  0.00
  YS02001647YS02001649    1.00   0.00  0.17  0.00  0.57  0.26  0.00  0.00  0.57  0.00
  YS02001649YS02001757    1.00   0.00  0.00  0.00  0.83  0.17  0.00  0.00  0.42  0.00
  YS02001652YS02001649    1.00   0.00  0.00  0.00  0.96  0.04  0.00  0.00  0.72  0.00
  YS02001655YS02001652    1.00   0.00  0.00  0.00  0.19  0.01  0.00  0.80  0.06  0.00
  YS02001658YS02001655    1.00   0.00  0.14  0.00  0.65  0.21  0.00  0.00  0.70  0.00
  YS02001661YS02001658    1.00   0.14  0.00  0.00  0.50  0.36  0.00  0.00  0.71  0.00
  YS02001664YS02001661    1.00   0.13  0.00  0.00  0.78  0.09  0.00  0.00  0.86  0.00
  YS02001745YS02001748    1.00   0.00  0.00  0.00  0.10  0.00  0.00  0.90  0.04  0.00
  YS02001748YS02001751    1.00   0.00  0.00  0.00  0.82  0.18  0.00  0.00  0.74  0.00
  YS02001751YS02001754    1.00   0.00  0.00  0.00  0.16  0.01  0.00  0.83  0.04  0.00
  YS02001754YS02001757    1.00   0.00  0.00  0.00  1.00  0.00  0.00  0.00  0.79  0.00
  YS02001757CaochengTiaoxuchi    1.00   0.00  0.00  0.00  1.00  0.00  0.00  0.00  0.60  0.00
  YS02001759YS02001757    1.00   0.00  0.00  0.00  1.00  0.00  0.00  0.00  0.51  0.00
  YS02001762YS02001759    1.00   0.00  0.00  0.00  1.00  0.00  0.00  0.00  0.05  0.00
  YS02001765YS02001762    1.00   0.00  0.00  0.00  1.00  0.00  0.00  0.00  0.64  0.00
  YS02001767YS02001765    1.00   0.00  0.00  0.00  1.00  0.00  0.00  0.00  0.01  0.00
  YS02001770YS02001767    1.00   0.00  0.00  0.00  1.00  0.00  0.00  0.00  0.00  0.00
  YS02001774YS02001770    1.00   0.00  0.13  0.00  0.70  0.00  0.16  0.00  0.03  0.00
  YS02001779YS02001774    1.00   0.00  0.00  0.00  1.00  0.00  0.00  0.00  0.75  0.00
  YS02001783YS02001784    1.00   0.00  0.18  0.00  0.82  0.00  0.00  0.00  0.55  0.00
  YS02001784YS02001785    1.00   0.00  0.00  0.00  1.00  0.00  0.00  0.00  0.17  0.00
  YS02001786YS02001788    1.00   0.00  0.00  0.00  0.79  0.21  0.00  0.00  0.00  0.00
  YS02001788YS02001790    1.00   0.00  0.00  0.00  0.21  0.79  0.00  0.00  0.80  0.00
  YS02001790YS02001791    1.00   0.00  0.00  0.00  0.01  0.99  0.00  0.00  0.17  0.00
  YS02001791YS02001793    1.00   0.00  0.00  0.00  0.00  1.00  0.00  0.00  0.01  0.00
  YS02001793JiankangQianchi    1.00   0.00  0.00  0.00  0.99  0.00  0.00  0.00  0.95  0.00
  YS02001882YS02001884    1.00   0.15  0.01  0.00  0.84  0.00  0.00  0.00  0.00  0.00
  YS02001884YS02001887    1.00   0.06  0.05  0.00  0.89  0.00  0.00  0.00  0.00  0.00
  YS02001887YS02001890    1.00   0.00  0.00  0.00  0.97  0.00  0.03  0.00  0.00  0.00
  YS02001890YS02001895    1.00   0.00  0.16  0.00  0.83  0.00  0.00  0.00  0.00  0.00
  YS02001895YS02001898    1.00   0.17  0.00  0.00  0.81  0.00  0.02  0.00  0.00  0.00
  YS02001898YS02001901    1.00   0.17  0.00  0.00  0.83  0.00  0.00  0.00  0.01  0.00
  YS02001901YS02001904    1.00   0.17  0.00  0.00  0.83  0.00  0.00  0.00  0.00  0.00
  YS02001904YS02001907    1.00   0.00  0.16  0.00  0.83  0.00  0.00  0.00  0.00  0.00
  YS02001907YS02006553    1.00   0.00  0.02  0.00  0.98  0.00  0.00  0.00  0.00  0.00
  YS02001910YS02001907    1.00   0.00  0.00  0.00  0.97  0.00  0.00  0.03  0.12  0.00
  YS02001915YS02001910    1.00   0.00  0.00  0.00  0.97  0.03  0.00  0.00  0.16  0.00
  YS02001918YS02001915    1.00   0.00  0.01  0.00  0.98  0.02  0.00  0.00  0.75  0.00
  YS02001920YS02001918    1.00   0.00  0.01  0.00  0.99  0.00  0.00  0.00  0.00  0.00
  YS02001923YS02001920    1.00   0.00  0.00  0.00  1.00  0.00  0.00  0.00  0.93  0.00
  YS02001926YS02001923    1.00   0.00  0.07  0.00  0.05  0.00  0.87  0.00  0.00  0.00
  YS02001929YS02001926    1.00   0.00  0.13  0.00  0.87  0.00  0.00  0.00  0.83  0.00
  YS02006553YS02006556    1.00   0.01  0.00  0.00  0.99  0.00  0.00  0.00  0.03  0.00
  YS02006556YS02006558    1.00   0.00  0.00  0.00  1.00  0.00  0.00  0.00  0.00  0.00
  YS02006558YS02006561    1.00   0.18  0.00  0.00  0.05  0.77  0.00  0.00  0.19  0.00
  YS02006561YS02001783    1.00   0.18  0.00  0.00  0.08  0.73  0.00  0.00  0.69  0.00
  YS02163301YS02001633    1.00   0.00  0.15  0.00  0.85  0.00  0.00  0.00  0.00  0.00
  YS02163601YS02164001    1.00   0.00  0.08  0.00  0.92  0.00  0.00  0.00  0.00  0.00
  YS02164001YS02001641    1.00   0.01  0.07  0.00  0.92  0.00  0.00  0.00  0.05  0.00
  
  
  *************************
  Conduit Surcharge Summary
  *************************
  
  ----------------------------------------------------------------------------
                                                           Hours        Hours 
                         --------- Hours Full --------   Above Full   Capacity
  Conduit                Both Ends  Upstream  Dnstream   Normal Flow   Limited
  ----------------------------------------------------------------------------
  WS02003072WS02003073        0.01      0.01      0.01      1.39         0.01
  WS02004404WS02004405        0.01      0.01      0.01      3.38         0.01
  WS02004405WS02004406        0.01      0.01      0.01      0.82         0.01
  WS02006109WS02006110        0.78      0.78      2.03      0.94         0.01
  WS02006110WS02006113        0.01      0.01      2.02      0.01         0.01
  WS02006111WS02006112        0.01      0.01      2.15      0.01         0.01
  WS02006112WS02006115        0.01      0.01      0.91      0.01         0.01
  WS02006228WS02006109        2.01      2.04      2.01      2.43         2.00
  WS02006229WS02006228        2.00      2.01      2.00      2.21         1.99
  WS02006230WS02006229        2.08      2.14      2.08      4.12         2.08
  WS02006231WS02006230        0.79      0.79      1.06      3.69         0.01
  WS02006232WS02006231        0.99      0.99      2.03      1.07         0.01
  WS02006234WS02006232        1.94      1.94      2.03      1.04         1.02
  WS02006235WS02006234        1.39      1.40      1.94      3.59         0.02
  WS02006238WS02006235        1.97      1.97      2.03      0.01         0.01
  WS02006239WS02006238        2.01      2.02      2.01      2.09         1.78
  WS02006240WS02006239        1.98      2.00      1.98      2.08         1.67
  WS02006242WS02006240        2.00      2.00      2.03      2.20         0.01
  WS02006243WS02006242        2.00      2.00      2.01      0.01         0.07
  WS02006245WS02006243        1.99      1.99      1.99      1.26         1.20
  WS02006247WS02006245        1.99      1.99      1.99      3.32         1.97
  WS02006248WS02006247        1.98      1.98      1.99      0.01         0.07
  WS02006249WS02006248        1.98      1.98      1.98      3.28         0.01
  WS02006251WS02006249        1.98      1.98      1.98      2.13         1.89
  WS02006252WS02006251        2.17      2.17      2.18      2.17         0.01
  WS02006256WS02006235        3.57      3.62      5.29      1.41         0.01
  YS02001580YS02001583        0.54      0.55      0.60      0.01         0.01
  YS02001583YS02001586        0.55      0.55      0.68      0.01         0.01
  YS02001586YS02001590        0.69      0.69      0.76      0.01         0.01
  YS02001590YS02001593        0.76      0.76      0.78      0.78         0.01
  YS02001593YS02001596        0.77      0.77      0.88      0.01         0.01
  YS02001596YS02001600        0.94      0.94      1.03      0.01         0.01
  YS02001600YS02001601        1.09      1.09      1.38      0.01         0.01
  YS02001601YS02001602        1.27      1.27      1.43      1.04         0.01
  YS02001602YS02001605        1.21      1.21      1.27      2.33         0.01
  YS02001605YS02001607        1.17      1.21      1.17      1.33         1.16
  YS02001607YS02001610        0.75      0.75      0.78      0.01         0.01
  YS02001610YS02001613        0.75      0.75      0.78      0.01         0.01
  YS02001613YS02001616        0.70      0.70      0.75      0.01         0.01
  YS02001616YS02001619        0.69      0.69      0.70      0.01         0.01
  YS02001619YS02001622        0.69      0.69      0.69      0.75         0.65
  YS02001622YS02001625        0.69      0.69      0.87      0.01         0.01
  YS02001625YS02001629        0.63      0.63      0.87      0.01         0.01
  YS02001629YS02163301        0.87      0.87      0.88      0.07         0.15
  YS02001633YS02163601        0.90      0.90      0.93      0.28         0.27
  YS02001641YS02001644        0.81      0.84      0.81      1.48         0.79
  YS02001644YS02001647        0.61      0.61      0.81      0.01         0.01
  YS02001647YS02001649        0.61      0.61      0.73      0.01         0.01
  YS02001649YS02001757        0.73      0.73      0.80      0.05         0.05
  YS02001652YS02001649        0.57      0.57      0.73      0.01         0.01
  YS02001655YS02001652        0.40      0.40      0.55      0.01         0.01
  YS02001658YS02001655        0.22      0.22      0.40      0.01         0.01
  YS02001661YS02001658        0.02      0.02      0.22      0.01         0.01
  YS02001664YS02001661        0.01      0.01      0.06      0.01         0.01
  YS02001745YS02001748        0.01      0.01      0.17      0.01         0.01
  YS02001748YS02001751        0.20      0.20      0.30      0.01         0.01
  YS02001751YS02001754        0.30      0.30      0.47      0.01         0.01
  YS02001754YS02001757        0.51      0.51      0.80      0.01         0.01
  YS02001757CaochengTiaoxuchi        0.80      0.80      1.96      0.30         0.30
  YS02001759YS02001757        0.71      0.71      0.80      0.01         0.01
  YS02001762YS02001759        0.68      0.68      0.71      0.01         0.01
  YS02001765YS02001762        0.64      0.64      0.68      0.01         0.01
  YS02001767YS02001765        0.60      0.60      0.64      0.01         0.02
  YS02001770YS02001767        0.60      0.60      0.60      0.42         0.40
  YS02001774YS02001770        0.58      0.58      0.66      0.01         0.01
  YS02001779YS02001774        0.45      0.45      0.66      0.01         0.01
  YS02001783YS02001784        0.46      0.49      0.46      0.66         0.46
  YS02001784YS02001785        0.36      0.46      0.36      0.91         0.36
  YS02001786YS02001788        0.01      0.36      0.01      0.78         0.01
  YS02001790YS02001791        0.01      0.01      0.01      0.45         0.01
  YS02001793JiankangQianchi        0.01      0.01      7.70      0.01         0.01
  YS02001882YS02001884        0.44      0.44      0.44      0.01         0.01
  YS02001884YS02001887        0.47      0.47      0.48      0.01         0.01
  YS02001887YS02001890        0.49      0.49      0.51      0.09         0.01
  YS02001890YS02001895        0.42      0.42      0.52      0.01         0.01
  YS02001895YS02001898        0.41      0.41      0.42      0.01         0.01
  YS02001898YS02001901        0.43      0.43      0.46      0.01         0.01
  YS02001901YS02001904        0.46      0.46      0.46      0.01         0.01
  YS02001904YS02001907        0.46      0.46      0.75      0.01         0.01
  YS02001907YS02006553        0.92      0.92      0.99      0.01         0.01
  YS02001910YS02001907        0.52      0.52      0.74      0.01         0.01
  YS02001915YS02001910        0.43      0.43      0.52      0.01         0.01
  YS02001918YS02001915        0.35      0.35      0.43      0.01         0.01
  YS02001920YS02001918        0.35      0.35      0.36      0.01         0.01
  YS02001923YS02001920        0.31      0.31      0.36      0.01         0.01
  YS02001926YS02001923        0.06      0.06      0.11      0.01         0.01
  YS02001929YS02001926        0.01      0.01      0.11      0.01         0.01
  YS02006553YS02006556        0.62      0.62      0.75      0.01         0.01
  YS02006556YS02006558        0.69      0.69      0.77      0.01         0.01
  YS02006558YS02006561        0.38      0.60      0.38      0.86         0.38
  YS02006561YS02001783        0.31      0.31      0.49      0.01         0.01
  YS02163301YS02001633        0.88      0.88      0.92      0.01         0.01
  YS02163601YS02164001        0.84      0.84      0.93      0.08         0.01
  YS02164001YS02001641        0.84      0.84      0.84      0.64         0.55
  
  
  ***************
  Pumping Summary
  ***************
  
  ---------------------------------------------------------------------------------------------------------
                                                  Min       Avg       Max     Total     Power    % Time Off
                        Percent   Number of      Flow      Flow      Flow    Volume     Usage    Pump Curve
  Pump                 Utilized   Start-Ups       LPS       LPS       LPS  10^6 ltr     Kw-hr    Low   High
  ---------------------------------------------------------------------------------------------------------
  CC-R1                   17.34           2      0.00    683.00    683.00     3.411     64.52    0.0    9.7
  CC-R2                   12.84           2      0.00    683.00    683.00     2.525     48.13    0.0   13.1
  CC-S1                   42.22           4      0.00    200.00    200.00     2.432     13.97    0.0    0.0
  CC-S2                   27.17           2      0.00    200.00    200.00     1.565      8.74    0.0    0.0
  JK-R1                    7.95          14      0.00   1000.00   1000.00     2.288     27.08    0.0    0.0
  JK-R2                    0.16           1      0.00   1000.00   1000.00     0.047      0.36    0.0    0.0
  JK-S                    17.57          21      0.00    300.00    300.00     1.518     19.71    0.0    0.0
  

  Analysis begun on:  Thu Apr 24 00:06:34 2025
  Analysis ended on:  Thu Apr 24 00:06:36 2025
  Total elapsed time: 00:00:02