
  EPA STORM WATER MANAGEMENT MODEL - VERSION 5.2 (Build 5.2.4)
  PYSWMM TOOLKIT API - VERSION v1.0 (2023-11-27)
  ------------------------------------------------------------

  WARNING 04: minimum elevation drop used for Conduit WS02004404WS02004405
  WARNING 03: negative offset ignored for Link YS02001904YS02001907
  
  ****************
  Analysis Options
  ****************
  Flow Units ............... LPS
  Process Models:
    Rainfall/Runoff ........ YES
    RDII ................... NO
    Snowmelt ............... NO
    Groundwater ............ NO
    Flow Routing ........... YES
    Ponding Allowed ........ NO
    Water Quality .......... NO
  Infiltration Method ...... HORTON
  Flow Routing Method ...... DYNWAVE
  Surcharge Method ......... EXTRAN
  Starting Date ............ 08/28/2015 08:00:00
  Ending Date .............. 08/28/2015 16:00:00
  Antecedent Dry Days ...... 8.0
  Report Time Step ......... 00:01:00
  Wet Time Step ............ 00:01:00
  Dry Time Step ............ 00:01:00
  Routing Time Step ........ 30.00 sec
  Variable Time Step ....... YES
  Maximum Trials ........... 8
  Number of Threads ........ 4
  Head Tolerance ........... 0.001500 m
  
  
  **************************        Volume         Depth
  Runoff Quantity Continuity     hectare-m            mm
  **************************     ---------       -------
  Total Precipitation ......         1.839        55.437
  Evaporation Loss .........         0.000         0.000
  Infiltration Loss ........         0.097         2.935
  Surface Runoff ...........         1.709        51.520
  Final Storage ............         0.033         0.994
  Continuity Error (%) .....        -0.020
  
  
  **************************        Volume        Volume
  Flow Routing Continuity        hectare-m      10^6 ltr
  **************************     ---------     ---------
  Dry Weather Inflow .......         0.025         0.251
  Wet Weather Inflow .......         1.709        17.088
  Groundwater Inflow .......         0.000         0.000
  RDII Inflow ..............         0.000         0.000
  External Inflow ..........         0.083         0.834
  External Outflow .........         1.378        13.781
  Flooding Loss ............         0.411         4.113
  Evaporation Loss .........         0.000         0.000
  Exfiltration Loss ........         0.000         0.000
  Initial Stored Volume ....         0.243         2.431
  Final Stored Volume ......         0.275         2.754
  Continuity Error (%) .....        -0.210
  
  
  *************************
  Highest Continuity Errors
  *************************
  Node YS02001583 (-8.68%)
  Node YS02001884 (5.20%)
  Node YS02001774 (1.50%)
  
  
  ***************************
  Time-Step Critical Elements
  ***************************
  Link WS02006252WS02006251 (45.76%)
  Link WS02004404WS02004405 (15.87%)
  Link WS02006238WS02006235 (9.14%)
  Link YS02001791YS02001793 (6.95%)
  Link WS02006235WS02006234 (6.61%)
  
  
  ********************************
  Highest Flow Instability Indexes
  ********************************
  Link WS02006113WS02006111 (44)
  Link WS02006111WS02006112 (23)
  Link WS02006252WS02006251 (14)
  Link WS02006238WS02006235 (13)
  Link WS02006256WS02006235 (12)
  
  
  *********************************
  Most Frequent Nonconverging Nodes
  *********************************
  Node CC-1 (15.43%)
  Node CC-2 (15.43%)
  Node JK-1 (15.43%)
  Node JK-2 (15.43%)
  Node WSC (15.43%)
  
  
  *************************
  Routing Time Step Summary
  *************************
  Minimum Time Step           :     0.00 sec
  Average Time Step           :     2.08 sec
  Maximum Time Step           :     6.43 sec
  % of Time in Steady State   :     0.00
  Average Iterations per Step :     3.19
  % of Steps Not Converging   :    15.43
  Time Step Frequencies       :
     30.000 - 13.228 sec      :     0.00 %
     13.228 -  5.833 sec      :     8.84 %
      5.833 -  2.572 sec      :    23.41 %
      2.572 -  1.134 sec      :    16.31 %
      1.134 -  0.500 sec      :    51.44 %
  
  
  ***************************
  Subcatchment Runoff Summary
  ***************************
  
  ------------------------------------------------------------------------------------------------------------------------------
                            Total      Total      Total      Total     Imperv       Perv      Total       Total     Peak  Runoff
                           Precip      Runon       Evap      Infil     Runoff     Runoff     Runoff      Runoff   Runoff   Coeff
  Subcatchment                 mm         mm         mm         mm         mm         mm         mm    10^6 ltr      LPS
  ------------------------------------------------------------------------------------------------------------------------------
  sub60                     55.44       0.00       0.00       1.79      47.58       4.87      52.45        0.69   422.04   0.946
  sub61                     55.44       0.00       0.00       2.59      44.88       6.84      51.72        0.95   582.42   0.933
  sub62                     55.44       0.00       0.00       1.19      49.71       3.24      52.96        1.45   822.79   0.955
  sub63                     55.44       0.00       0.00       4.74      38.39      11.34      49.72        1.13   640.64   0.897
  sub64                     55.44       0.00       0.00       2.40      45.91       5.92      51.83        1.24   660.02   0.935
  sub65                     55.44       0.00       0.00       2.08      46.98       5.13      52.11        1.43   737.82   0.940
  sub66                     55.44       0.00       0.00       5.81      38.28      10.27      48.55        2.26   940.88   0.876
  sub67                     55.44       0.00       0.00       1.15      49.75       3.28      53.04        0.99   643.60   0.957
  sub68                     55.44       0.00       0.00       2.14      46.49       5.62      52.11        1.43   841.05   0.940
  sub69                     55.44       0.00       0.00       1.89      47.01       6.43      53.44        1.98   987.98   0.964
  sub70                     55.44       0.00       0.00       6.21      36.43      12.64      49.07        1.42   532.25   0.885
  sub71                     55.44       0.00       0.00       1.22      49.67       3.22      52.89        1.38   718.58   0.954
  sub72                     55.44       0.00       0.00       1.08      50.15       2.80      52.95        0.73   344.39   0.955
  
  
  ******************
  Node Depth Summary
  ******************
  
  ---------------------------------------------------------------------------------
                                 Average  Maximum  Maximum  Time of Max    Reported
                                   Depth    Depth      HGL   Occurrence   Max Depth
  Node                 Type       Meters   Meters   Meters  days hr:min      Meters
  ---------------------------------------------------------------------------------
  WS02003060           JUNCTION     0.23     0.38     5.31     0  02:16        0.38
  WS02003066           JUNCTION     0.19     0.30     5.85     0  02:18        0.30
  WS02003067           JUNCTION     0.50     0.70     6.02     0  02:18        0.70
  WS02003069           JUNCTION     0.26     0.43     5.01     0  02:14        0.43
  WS02003072           JUNCTION     0.32     0.50     4.87     0  02:19        0.50
  WS02003073           JUNCTION     0.18     0.30     4.36     0  02:20        0.30
  WS02004401           JUNCTION     0.58     0.85     6.85     0  02:10        0.85
  WS02004402           JUNCTION     0.61     0.88     6.84     0  02:11        0.88
  WS02004403           JUNCTION     0.63     0.89     6.82     0  02:11        0.89
  WS02004404           JUNCTION     0.71     0.96     6.81     0  02:11        0.96
  WS02004405           JUNCTION     0.70     0.95     6.80     0  02:11        0.95
  WS02004406           JUNCTION     0.72     0.96     6.79     0  02:11        0.95
  WS02004407           JUNCTION     0.17     0.30     6.61     0  02:11        0.29
  WS02004409           JUNCTION     0.39     0.66     6.43     0  02:12        0.66
  WS02004410           JUNCTION     0.41     0.68     6.40     0  02:17        0.68
  WS02004411           JUNCTION     0.43     0.69     6.37     0  02:12        0.69
  WS02004412           JUNCTION     0.46     0.69     6.33     0  02:17        0.69
  WS02004413           JUNCTION     0.61     0.85     6.32     0  02:17        0.85
  WS02006109           JUNCTION     0.64     1.19     7.80     0  02:22        0.99
  WS02006110           JUNCTION     0.64     1.16     7.75     0  02:28        0.93
  WS02006111           JUNCTION     0.17     0.29     6.99     0  02:30        0.29
  WS02006112           JUNCTION     0.73     1.12     7.00     0  02:23        1.05
  WS02006113           JUNCTION     0.26     0.46     7.35     0  02:59        0.46
  WS02006115           JUNCTION     0.46     0.75     6.89     0  02:10        0.75
  WS02006116           JUNCTION     0.55     0.83     6.87     0  02:10        0.83
  WS02006228           JUNCTION     0.63     1.22     7.87     0  02:22        1.09
  WS02006229           JUNCTION     0.60     1.20     7.90     0  02:28        1.11
  WS02006230           JUNCTION     0.60     1.40     8.14     0  02:28        1.23
  WS02006231           JUNCTION     0.41     1.38     8.50     0  02:00        1.00
  WS02006232           JUNCTION     0.55     1.56     8.60     0  02:54        1.21
  WS02006234           JUNCTION     0.47     1.69     8.85     0  02:54        1.29
  WS02006235           JUNCTION     0.51     1.92     9.08     0  02:54        1.41
  WS02006238           JUNCTION     0.54     1.99     9.14     0  02:54        1.45
  WS02006239           JUNCTION     0.50     1.93     9.14     0  02:54        1.45
  WS02006240           JUNCTION     0.47     1.77     9.06     0  02:54        1.47
  WS02006242           JUNCTION     0.54     1.55     8.82     0  02:05        1.55
  WS02006243           JUNCTION     0.45     1.48     8.90     0  03:07        1.48
  WS02006245           JUNCTION     0.45     1.49     8.97     0  03:07        1.49
  WS02006247           JUNCTION     0.47     1.40     8.90     0  03:07        1.40
  WS02006248           JUNCTION     0.44     1.10     8.69     0  01:55        1.10
  WS02006249           JUNCTION     0.47     1.09     8.69     0  01:54        1.09
  WS02006251           JUNCTION     0.47     1.61     9.28     0  01:54        1.26
  WS02006252           JUNCTION     0.34     1.50     9.74     0  00:00        0.83
  WS02006256           JUNCTION     0.99     2.35     9.28     0  00:00        2.35
  WSF200               JUNCTION     0.17     0.29     5.52     0  02:15        0.29
  YS02001580           JUNCTION     0.08     1.05     9.59     0  01:46        1.05
  YS02001583           JUNCTION     0.12     1.14     9.64     0  01:46        0.82
  YS02001586           JUNCTION     0.18     1.13     9.30     0  01:46        1.13
  YS02001590           JUNCTION     0.27     1.40     9.26     0  01:44        1.40
  YS02001593           JUNCTION     0.21     1.46     9.32     0  01:44        1.33
  YS02001596           JUNCTION     0.28     1.73     9.14     0  01:58        1.73
  YS02001600           JUNCTION     0.33     1.87     9.00     0  01:46        1.87
  YS02001601           JUNCTION     0.52     2.06     8.90     0  01:45        2.06
  YS02001602           JUNCTION     0.43     1.87     8.77     0  01:46        1.87
  YS02001605           JUNCTION     0.40     1.78     8.68     0  01:46        1.78
  YS02001607           JUNCTION     0.41     1.66     8.51     0  02:01        1.66
  YS02001610           JUNCTION     0.45     1.68     8.48     0  01:46        1.68
  YS02001613           JUNCTION     0.41     1.67     8.51     0  01:58        1.65
  YS02001616           JUNCTION     0.34     1.61     8.52     0  01:58        1.60
  YS02001619           JUNCTION     0.32     1.60     8.53     0  01:58        1.59
  YS02001622           JUNCTION     0.31     1.58     8.48     0  01:58        1.56
  YS02001625           JUNCTION     0.57     1.78     8.38     0  01:46        1.78
  YS02001629           JUNCTION     0.42     1.85     8.40     0  01:46        1.85
  YS02001633           JUNCTION     0.50     2.08     8.53     0  01:47        2.01
  YS02001641           JUNCTION     0.49     2.01     8.45     0  01:58        1.93
  YS02001644           JUNCTION     0.48     1.92     8.35     0  01:47        1.92
  YS02001647           JUNCTION     0.28     1.82     8.43     0  01:49        1.72
  YS02001649           JUNCTION     0.31     2.05     8.44     0  01:49        1.92
  YS02001652           JUNCTION     0.21     2.16     8.76     0  01:48        1.75
  YS02001655           JUNCTION     0.16     2.20     9.05     0  01:48        1.54
  YS02001658           JUNCTION     0.11     2.30     9.44     0  01:49        1.28
  YS02001661           JUNCTION     0.14     1.41     8.81     0  01:50        1.05
  YS02001664           JUNCTION     0.05     0.63     8.55     0  01:50        0.45
  YS02001745           JUNCTION     0.05     0.90     8.42     0  01:49        0.85
  YS02001748           JUNCTION     0.10     2.27     9.35     0  01:49        1.27
  YS02001751           JUNCTION     0.14     2.20     9.08     0  01:49        1.43
  YS02001754           JUNCTION     0.19     2.20     8.81     0  01:49        1.66
  YS02001757           JUNCTION     0.35     2.21     8.47     0  01:49        1.95
  YS02001759           JUNCTION     0.28     2.20     8.57     0  01:49        1.94
  YS02001762           JUNCTION     0.27     2.15     8.55     0  01:49        1.93
  YS02001765           JUNCTION     0.25     2.10     8.55     0  01:48        1.90
  YS02001767           JUNCTION     0.25     2.03     8.52     0  01:48        1.89
  YS02001770           JUNCTION     0.26     1.95     8.44     0  01:48        1.92
  YS02001774           JUNCTION     0.32     2.05     8.47     0  01:48        1.97
  YS02001779           JUNCTION     0.17     1.68     8.37     0  01:48        1.68
  YS02001783           JUNCTION     0.22     1.68     7.82     0  01:48        1.25
  YS02001784           JUNCTION     0.23     1.38     7.45     0  01:48        1.11
  YS02001786           JUNCTION     0.20     1.04     7.07     0  01:48        0.90
  YS02001788           JUNCTION     0.14     0.62     6.60     0  01:53        0.62
  YS02001790           JUNCTION     0.17     0.72     6.37     0  01:53        0.72
  YS02001791           JUNCTION     0.11     0.44     5.91     0  01:53        0.43
  YS02001793           JUNCTION     0.06     0.30     5.13     0  01:52        0.30
  YS02001882           JUNCTION     0.28     1.83     8.55     0  01:47        1.63
  YS02001884           JUNCTION     0.37     1.91     8.53     0  01:47        1.73
  YS02001887           JUNCTION     0.45     1.94     8.48     0  01:47        1.81
  YS02001890           JUNCTION     0.48     1.81     8.32     0  01:47        1.81
  YS02001895           JUNCTION     0.25     1.75     8.50     0  01:47        1.56
  YS02001898           JUNCTION     0.26     1.77     8.51     0  01:47        1.58
  YS02001901           JUNCTION     0.38     1.87     8.48     0  01:47        1.68
  YS02001904           JUNCTION     0.36     1.84     8.47     0  01:47        1.71
  YS02001907           JUNCTION     0.67     1.96     8.25     0  01:47        1.96
  YS02001910           JUNCTION     0.47     2.03     8.54     0  01:47        1.96
  YS02001915           JUNCTION     0.28     2.00     8.72     0  01:47        1.91
  YS02001918           JUNCTION     0.15     1.81     8.88     0  01:47        1.81
  YS02001920           JUNCTION     0.23     2.12     9.13     0  01:48        1.85
  YS02001923           JUNCTION     0.11     2.03     9.29     0  01:48        1.57
  YS02001926           JUNCTION     0.15     1.90     9.35     0  01:48        1.37
  YS02001929           JUNCTION     0.08     1.78     9.47     0  01:48        1.10
  YS02006553           JUNCTION     0.68     2.10     8.39     0  01:48        1.97
  YS02006556           JUNCTION     0.65     2.23     8.54     0  01:48        1.95
  YS02006558           JUNCTION     0.69     2.31     8.58     0  01:48        1.98
  YS02006561           JUNCTION     0.14     1.59     8.25     0  01:48        0.88
  YS02163301           JUNCTION     0.45     1.97     8.49     0  01:46        1.91
  YS02163601           JUNCTION     0.54     2.08     8.48     0  01:47        2.01
  YS02164001           JUNCTION     0.47     2.03     8.49     0  01:47        1.93
  CC-1                 OUTFALL      0.00     0.00     0.00     0  00:00        0.00
  CC-2                 OUTFALL      0.00     0.00     0.00     0  00:00        0.00
  JK-1                 OUTFALL      0.00     0.00     0.00     0  00:00        0.00
  JK-2                 OUTFALL      0.00     0.00     0.00     0  00:00        0.00
  WSC                  OUTFALL      0.18     0.30     0.97     0  02:20        0.30
  CC-storage           STORAGE      0.95     1.62     7.12     0  02:19        1.62
  JK-storage           STORAGE      3.23     4.24     5.04     0  01:51        4.18
  
  
  *******************
  Node Inflow Summary
  *******************
  
  -------------------------------------------------------------------------------------------------
                                  Maximum  Maximum                  Lateral       Total        Flow
                                  Lateral    Total  Time of Max      Inflow      Inflow     Balance
                                   Inflow   Inflow   Occurrence      Volume      Volume       Error
  Node                 Type           LPS      LPS  days hr:min    10^6 ltr    10^6 ltr     Percent
  -------------------------------------------------------------------------------------------------
  WS02003060           JUNCTION     16.53   547.76     0  02:13       0.476        5.39       0.036
  WS02003066           JUNCTION      0.00   530.95     0  02:18           0        4.92       0.026
  WS02003067           JUNCTION      0.00   530.88     0  02:18           0        4.92       0.082
  WS02003069           JUNCTION      0.32   547.72     0  02:14     0.00922         5.4       0.065
  WS02003072           JUNCTION      0.00   547.14     0  02:19           0        5.39       0.119
  WS02003073           JUNCTION      1.82   549.11     0  02:19      0.0524        5.44       0.092
  WS02004401           JUNCTION      0.00   540.20     0  02:18           0        5.02       0.197
  WS02004402           JUNCTION      0.00   538.07     0  02:10           0        5.01       0.201
  WS02004403           JUNCTION      0.00   536.86     0  02:18           0           5       0.196
  WS02004404           JUNCTION      0.16   536.77     0  02:11     0.00467        4.99       0.165
  WS02004405           JUNCTION      0.04   536.44     0  02:11      0.0011        4.98       0.245
  WS02004406           JUNCTION      0.00   536.40     0  02:11           0        4.97       0.408
  WS02004407           JUNCTION      0.00   535.60     0  02:11           0        4.95       0.018
  WS02004409           JUNCTION      0.00   535.10     0  02:11           0        4.95       0.046
  WS02004410           JUNCTION      0.00   532.93     0  02:16           0        4.95       0.080
  WS02004411           JUNCTION      0.00   532.38     0  02:12           0        4.95       0.104
  WS02004412           JUNCTION      0.00   531.32     0  02:12           0        4.94       0.142
  WS02004413           JUNCTION      0.00   531.32     0  02:17           0        4.93       0.257
  WS02006109           JUNCTION      1.23   557.43     0  02:01      0.0354        5.06       0.172
  WS02006110           JUNCTION      0.00   559.16     0  02:01           0        5.05       0.136
  WS02006111           JUNCTION      0.00   562.84     0  02:18           0        5.04       0.013
  WS02006112           JUNCTION      0.00   544.96     0  02:30           0        5.04       0.365
  WS02006113           JUNCTION      0.00   571.66     0  02:23           0        5.05       0.033
  WS02006115           JUNCTION      0.00   561.78     0  02:30           0        5.03       0.127
  WS02006116           JUNCTION      0.00   543.40     0  02:30           0        5.02       0.045
  WS02006228           JUNCTION      0.00   555.54     0  02:11           0        5.03       0.064
  WS02006229           JUNCTION      0.00   555.48     0  02:28           0        5.03       0.103
  WS02006230           JUNCTION     10.28   597.75     0  03:07       0.296        5.04       0.041
  WS02006231           JUNCTION      0.00   579.24     0  02:16           0        4.74      -0.062
  WS02006232           JUNCTION      0.00   578.53     0  02:16           0        4.75       0.237
  WS02006234           JUNCTION      0.00   574.59     0  02:16           0        4.74      -0.213
  WS02006235           JUNCTION      0.00   567.53     0  02:16           0        4.81       0.166
  WS02006238           JUNCTION      0.00   424.73     0  02:30           0        3.86      -0.134
  WS02006239           JUNCTION      0.00   423.90     0  02:35           0        3.83      -0.040
  WS02006240           JUNCTION      0.00   422.59     0  02:35           0         3.8      -0.054
  WS02006242           JUNCTION      0.00   422.47     0  02:35           0        3.77      -0.013
  WS02006243           JUNCTION      0.00   421.87     0  02:35           0        3.75       0.043
  WS02006245           JUNCTION      0.00   421.92     0  03:25           0        3.76       0.187
  WS02006247           JUNCTION      0.00   424.15     0  03:25           0        3.76       0.019
  WS02006248           JUNCTION      0.00   424.43     0  03:25           0        3.76       0.058
  WS02006249           JUNCTION      0.00   459.02     0  00:00           0        3.99       0.208
  WS02006251           JUNCTION      0.08   414.30     0  01:54     0.00222        3.99      -0.028
  WS02006252           JUNCTION      0.00   400.00     0  00:00           0        3.99      -0.017
  WS02006256           JUNCTION      0.00   300.00     0  00:00           0        1.43      -0.900
  WSF200               JUNCTION      0.00   531.01     0  02:18           0        4.92       0.006
  YS02001580           JUNCTION      0.00   135.35     0  01:46           0     0.00445       1.002
  YS02001583           JUNCTION      0.00   234.54     0  01:46           0      0.0151      -7.985
  YS02001586           JUNCTION    532.25   532.26     0  01:54        1.42        1.43       0.101
  YS02001590           JUNCTION      0.00   318.08     0  02:01           0        1.24      -0.033
  YS02001593           JUNCTION      0.00   318.00     0  02:06           0        1.24       0.005
  YS02001596           JUNCTION      0.00   317.98     0  01:54           0        1.24      -0.001
  YS02001600           JUNCTION      0.00   318.04     0  01:57           0        1.24       0.006
  YS02001601           JUNCTION    987.98  1305.65     0  01:52        1.98        3.22       0.015
  YS02001602           JUNCTION      0.00   557.93     0  01:45           0        2.17       0.017
  YS02001605           JUNCTION      0.00   558.19     0  01:45           0        2.06       0.022
  YS02001607           JUNCTION      0.00   558.14     0  01:45           0        2.06       0.095
  YS02001610           JUNCTION      0.00   543.15     0  01:45           0         2.1       0.111
  YS02001613           JUNCTION      0.00   549.52     0  01:45           0        1.73       0.102
  YS02001616           JUNCTION      0.00   554.63     0  01:45           0        1.73       0.020
  YS02001619           JUNCTION    940.88   967.09     0  01:46        2.26        3.96       0.008
  YS02001622           JUNCTION      0.00   936.37     0  01:46           0        3.92      -0.009
  YS02001625           JUNCTION      0.00  1068.57     0  01:54           0        3.99       0.225
  YS02001629           JUNCTION      0.00   929.10     0  01:46           0        3.27       0.003
  YS02001633           JUNCTION    738.02  1437.07     0  01:47        1.44        4.62       0.075
  YS02001641           JUNCTION      0.00  1435.75     0  01:47           0        4.55       0.066
  YS02001644           JUNCTION    660.06  1912.57     0  01:47        1.25        5.79       0.054
  YS02001647           JUNCTION      0.00  1913.03     0  01:47           0        5.69       0.008
  YS02001649           JUNCTION      0.00  2168.62     0  01:48           0        6.83       0.005
  YS02001652           JUNCTION      0.00   797.42     0  01:51           0        1.14      -0.097
  YS02001655           JUNCTION      0.15   796.09     0  01:51     0.00443        1.13      -0.142
  YS02001658           JUNCTION      0.00   796.43     0  01:51           0        1.13      -0.191
  YS02001661           JUNCTION      0.00   791.61     0  01:50           0        1.13       0.040
  YS02001664           JUNCTION    640.64   640.64     0  01:51        1.13        1.13      -0.016
  YS02001745           JUNCTION    422.04   594.60     0  01:49       0.689       0.691       0.274
  YS02001748           JUNCTION      0.04   739.94     0  01:49      0.0013       0.692      -0.410
  YS02001751           JUNCTION      0.01   533.71     0  01:50    0.000317         0.7       0.083
  YS02001754           JUNCTION      0.26   535.56     0  01:50     0.00749       0.714      -0.215
  YS02001757           JUNCTION      0.00  3413.30     0  01:50           0        9.94       0.042
  YS02001759           JUNCTION    582.46  1369.66     0  01:49        0.95         2.4      -0.007
  YS02001762           JUNCTION      0.00   792.28     0  01:49           0        1.45       0.009
  YS02001765           JUNCTION      0.00   794.39     0  01:49           0        1.45       0.014
  YS02001767           JUNCTION      0.54   795.53     0  01:49      0.0154        1.45       0.010
  YS02001770           JUNCTION    822.94   822.94     0  01:51        1.46         1.5      -0.011
  YS02001774           JUNCTION      0.00   524.63     0  01:48           0      0.0848       1.527
  YS02001779           JUNCTION      0.01   527.56     0  01:48    0.000144      0.0391      -1.427
  YS02001783           JUNCTION      0.00  1159.56     0  01:49           0        3.79       0.006
  YS02001784           JUNCTION      1.06  1160.61     0  01:49      0.0305        3.82       0.013
  YS02001786           JUNCTION      0.06  1160.54     0  01:49     0.00162        3.83       0.020
  YS02001788           JUNCTION      0.07  1161.72     0  01:48     0.00204        3.83       0.008
  YS02001790           JUNCTION      0.15  1166.61     0  01:51     0.00446        3.83       0.026
  YS02001791           JUNCTION      0.00  1288.20     0  01:53           0        3.83      -0.028
  YS02001793           JUNCTION      0.00  1242.00     0  01:58           0        3.83       0.005
  YS02001882           JUNCTION      0.00   113.65     0  01:47           0      0.0135       4.448
  YS02001884           JUNCTION      0.00   127.95     0  01:46           0      0.0494       5.489
  YS02001887           JUNCTION    644.05   644.05     0  01:50       0.999        1.03       0.424
  YS02001890           JUNCTION      0.00   644.17     0  01:50           0       0.991       0.504
  YS02001895           JUNCTION      0.00   540.60     0  01:47           0       0.959       0.171
  YS02001898           JUNCTION      0.00   541.13     0  01:47           0       0.957      -0.014
  YS02001901           JUNCTION      0.00   541.64     0  01:47           0       0.959       0.342
  YS02001904           JUNCTION      0.00   542.23     0  01:47           0       0.964       0.274
  YS02001907           JUNCTION      0.00  1626.75     0  01:49           0        3.15       0.546
  YS02001910           JUNCTION      0.00  1107.03     0  01:49           0        2.19       0.325
  YS02001915           JUNCTION    718.60  1106.80     0  01:49        1.38        2.24       0.062
  YS02001918           JUNCTION      0.00   580.84     0  01:47           0       0.892       0.022
  YS02001920           JUNCTION      2.87   569.61     0  01:47      0.0827       0.871       0.104
  YS02001923           JUNCTION      0.04   640.78     0  01:47     0.00109       0.771      -0.048
  YS02001926           JUNCTION      0.05   998.24     0  01:48      0.0015       0.751      -0.072
  YS02001929           JUNCTION    344.39   823.43     0  01:48       0.728       0.734      -0.099
  YS02006553           JUNCTION      0.00   794.15     0  02:07           0        2.39       0.499
  YS02006556           JUNCTION      0.00   794.35     0  02:07           0        2.39       0.324
  YS02006558           JUNCTION    841.93  1183.25     0  01:48        1.46        3.83       0.098
  YS02006561           JUNCTION      0.00  1183.78     0  01:48           0        3.79      -0.003
  YS02163301           JUNCTION      0.00   923.58     0  01:47           0        3.26       0.053
  YS02163601           JUNCTION      0.11  1437.01     0  01:47     0.00317        4.55       0.112
  YS02164001           JUNCTION      0.00  1436.54     0  01:47           0        4.54       0.054
  CC-1                 OUTFALL       0.00   683.00     0  00:00           0        3.49       0.000
  CC-2                 OUTFALL       0.00   683.00     0  00:00           0        2.47       0.000
  JK-1                 OUTFALL       0.00  1000.00     0  00:00           0        2.34       0.000
  JK-2                 OUTFALL       0.00  1000.00     0  00:00           0      0.0484       0.000
  WSC                  OUTFALL       0.00   548.79     0  02:20           0        5.44       0.000
  CC-storage           STORAGE       0.00  3415.06     0  01:50           0        12.2      -0.087
  JK-storage           STORAGE       0.00  1219.30     0  01:58           0        3.98       0.066
  
  
  **********************
  Node Surcharge Summary
  **********************
  
  Surcharging occurs when water rises above the top of the highest conduit.
  ---------------------------------------------------------------------
                                               Max. Height   Min. Depth
                                   Hours       Above Crown    Below Rim
  Node                 Type      Surcharged         Meters       Meters
  ---------------------------------------------------------------------
  WS02006109           JUNCTION        2.07          0.366        1.454
  WS02006110           JUNCTION        0.68          0.254        1.596
  WS02006112           JUNCTION        0.77          0.115        1.565
  WS02006228           JUNCTION        2.07          0.385        1.815
  WS02006229           JUNCTION        2.08          0.405        2.045
  WS02006230           JUNCTION        0.68          0.316        1.254
  WS02006231           JUNCTION        0.90          0.667        0.863
  WS02006232           JUNCTION        2.11          0.858        0.622
  WS02006234           JUNCTION        1.37          0.974        0.266
  WS02006235           JUNCTION        2.02          1.208        0.082
  WS02006238           JUNCTION        2.08          1.274        0.156
  WS02006239           JUNCTION        2.02          1.192        0.098
  WS02006240           JUNCTION        2.04          1.056        0.334
  WS02006242           JUNCTION        2.05          0.820        0.000
  WS02006243           JUNCTION        2.04          0.770        0.000
  WS02006245           JUNCTION        2.03          0.780        0.070
  WS02006247           JUNCTION        2.03          0.690        0.070
  WS02006248           JUNCTION        2.02          0.380        0.000
  WS02006249           JUNCTION        2.02          0.390        0.000
  WS02006251           JUNCTION        1.00          0.580        0.600
  WS02006252           JUNCTION        2.17          1.100        0.000
  WS02006256           JUNCTION        5.12          2.050        0.000
  YS02001580           JUNCTION        0.53          0.450        0.000
  YS02001583           JUNCTION        0.54          0.500        0.000
  YS02001586           JUNCTION        0.69          0.510        0.000
  YS02001590           JUNCTION        0.76          0.750        0.000
  YS02001593           JUNCTION        0.76          0.840        0.000
  YS02001596           JUNCTION        0.87          0.995        0.075
  YS02001600           JUNCTION        1.02          1.190        0.000
  YS02001601           JUNCTION        1.43          1.440        0.000
  YS02001602           JUNCTION        1.29          1.270        0.000
  YS02001605           JUNCTION        1.22          1.180        0.000
  YS02001607           JUNCTION        0.74          0.662        0.018
  YS02001610           JUNCTION        0.77          0.680        0.000
  YS02001613           JUNCTION        0.74          0.669        0.031
  YS02001616           JUNCTION        0.70          0.610        0.000
  YS02001619           JUNCTION        0.69          0.599        0.011
  YS02001622           JUNCTION        0.68          0.575        0.045
  YS02001625           JUNCTION        0.86          0.780        0.000
  YS02001629           JUNCTION        0.64          0.470        0.000
  YS02001633           JUNCTION        0.89          1.060        0.000
  YS02001641           JUNCTION        0.83          1.009        0.091
  YS02001644           JUNCTION        0.81          0.920        0.000
  YS02001647           JUNCTION        0.61          0.816        0.084
  YS02001649           JUNCTION        0.73          1.050        0.000
  YS02001652           JUNCTION        0.52          1.130        0.000
  YS02001655           JUNCTION        0.33          1.200        0.000
  YS02001658           JUNCTION        0.14          1.300        0.000
  YS02001661           JUNCTION        0.01          0.337        1.053
  YS02001748           JUNCTION        0.04          1.190        0.000
  YS02001751           JUNCTION        0.22          1.200        0.000
  YS02001754           JUNCTION        0.42          1.150        0.000
  YS02001757           JUNCTION        0.80          1.210        0.000
  YS02001759           JUNCTION        0.70          1.203        0.007
  YS02001762           JUNCTION        0.66          1.150        0.000
  YS02001765           JUNCTION        0.62          1.100        0.000
  YS02001767           JUNCTION        0.58          1.030        0.000
  YS02001770           JUNCTION        0.54          0.920        0.000
  YS02001774           JUNCTION        0.64          1.050        0.000
  YS02001779           JUNCTION        0.41          0.680        0.000
  YS02001783           JUNCTION        0.49          0.884        0.716
  YS02001784           JUNCTION        0.47          0.580        0.910
  YS02001786           JUNCTION        0.37          0.243        1.187
  YS02001882           JUNCTION        0.44          0.830        0.000
  YS02001884           JUNCTION        0.45          0.851        0.019
  YS02001887           JUNCTION        0.48          0.888        0.062
  YS02001890           JUNCTION        0.50          0.760        0.000
  YS02001895           JUNCTION        0.43          0.750        0.000
  YS02001898           JUNCTION        0.42          0.740        0.000
  YS02001901           JUNCTION        0.47          0.870        0.000
  YS02001904           JUNCTION        0.46          0.840        0.010
  YS02001907           JUNCTION        0.69          0.950        0.000
  YS02001910           JUNCTION        0.52          1.031        0.069
  YS02001915           JUNCTION        0.44          1.000        0.000
  YS02001918           JUNCTION        0.36          0.810        0.000
  YS02001920           JUNCTION        0.37          1.117        0.023
  YS02001923           JUNCTION        0.01          0.820        0.000
  YS02001926           JUNCTION        0.02          0.900        0.000
  YS02001929           JUNCTION        0.01          0.780        0.000
  YS02006553           JUNCTION        0.70          1.104        0.086
  YS02006556           JUNCTION        0.61          1.190        0.160
  YS02006558           JUNCTION        0.60          1.211        0.189
  YS02006561           JUNCTION        0.32          0.790        0.360
  YS02163301           JUNCTION        0.87          0.975        0.055
  YS02163601           JUNCTION        0.91          1.080        0.000
  YS02164001           JUNCTION        0.83          1.031        0.069
  
  
  *********************
  Node Flooding Summary
  *********************
  
  Flooding refers to all water that overflows a node, whether it ponds or not.
  --------------------------------------------------------------------------
                                                             Total   Maximum
                                 Maximum   Time of Max       Flood    Ponded
                        Hours       Rate    Occurrence      Volume     Depth
  Node                 Flooded       LPS   days hr:min    10^6 ltr    Meters
  --------------------------------------------------------------------------
  WS02006242              0.01     18.68      0  02:54       0.000     0.000
  WS02006243              0.01      3.31      0  03:07       0.000     0.000
  WS02006248              0.02     25.83      0  02:10       0.001     0.000
  WS02006249              0.95    120.23      0  01:54       0.222     0.000
  WS02006252              0.01    245.63      0  00:00       0.000     0.000
  WS02006256              1.32    293.19      0  00:00       0.450     0.000
  YS02001580              0.01     93.03      0  01:46       0.000     0.000
  YS02001583              0.01    209.13      0  01:46       0.000     0.000
  YS02001586              0.41    214.63      0  01:54       0.180     0.000
  YS02001590              0.01     67.69      0  01:44       0.000     0.000
  YS02001593              0.01     23.34      0  01:44       0.000     0.000
  YS02001600              0.01      5.86      0  01:58       0.000     0.000
  YS02001601              0.61    907.73      0  01:52       1.048     0.000
  YS02001602              0.52     62.24      0  01:58       0.104     0.000
  YS02001605              0.01      4.14      0  01:46       0.000     0.000
  YS02001610              0.44    437.50      0  01:54       0.400     0.000
  YS02001616              0.01      4.23      0  01:58       0.000     0.000
  YS02001625              0.42   1068.51      0  01:54       0.783     0.000
  YS02001629              0.08    228.80      0  01:46       0.020     0.000
  YS02001633              0.01      4.22      0  01:47       0.000     0.000
  YS02001644              0.10    459.43      0  01:50       0.087     0.000
  YS02001649              0.01     22.98      0  01:49       0.000     0.000
  YS02001652              0.01     74.07      0  01:48       0.000     0.000
  YS02001655              0.01    390.81      0  01:48       0.001     0.000
  YS02001658              0.01    476.77      0  01:49       0.000     0.000
  YS02001748              0.01    440.06      0  01:49       0.000     0.000
  YS02001751              0.01    222.61      0  01:49       0.000     0.000
  YS02001754              0.01     50.33      0  01:49       0.000     0.000
  YS02001757              0.01      8.13      0  01:49       0.000     0.000
  YS02001762              0.01     10.07      0  01:49       0.000     0.000
  YS02001765              0.01     55.61      0  01:48       0.000     0.000
  YS02001767              0.01    114.68      0  01:48       0.000     0.000
  YS02001770              0.01    246.49      0  01:48       0.000     0.000
  YS02001774              0.01    165.06      0  01:48       0.000     0.000
  YS02001779              0.08    497.89      0  01:48       0.020     0.000
  YS02001882              0.01    109.08      0  01:47       0.000     0.000
  YS02001890              0.10    125.04      0  01:50       0.028     0.000
  YS02001895              0.01     71.67      0  01:47       0.000     0.000
  YS02001898              0.01    178.38      0  01:47       0.000     0.000
  YS02001901              0.01      8.02      0  01:47       0.000     0.000
  YS02001907              0.30   1284.95      0  01:49       0.755     0.000
  YS02001915              0.01    227.50      0  01:47       0.000     0.000
  YS02001918              0.01    135.87      0  01:48       0.002     0.000
  YS02001923              0.01    102.32      0  01:48       0.000     0.000
  YS02001926              0.01    710.92      0  01:48       0.005     0.000
  YS02001929              0.01    673.51      0  01:48       0.002     0.000
  YS02163601              0.01     14.69      0  01:58       0.000     0.000
  
  
  **********************
  Storage Volume Summary
  **********************
  
  ------------------------------------------------------------------------------------------------
                         Average    Avg   Evap  Exfil     Maximum    Max    Time of Max    Maximum
                          Volume   Pcnt   Pcnt   Pcnt      Volume   Pcnt     Occurrence    Outflow
  Storage Unit           1000 m³   Full   Loss   Loss     1000 m³   Full    days hr:min        LPS
  ------------------------------------------------------------------------------------------------
  CC-storage               2.651   41.4    0.0    0.0       4.503   70.2       0  02:19    1783.53
  JK-storage               0.163   55.8    0.0    0.0       0.213   73.1       0  01:51    2300.00
  
  
  ***********************
  Outfall Loading Summary
  ***********************
  
  -----------------------------------------------------------
                         Flow       Avg       Max       Total
                         Freq      Flow      Flow      Volume
  Outfall Node           Pcnt       LPS       LPS    10^6 ltr
  -----------------------------------------------------------
  CC-1                  21.00    683.00    683.00       3.489
  CC-2                  15.97    683.00    683.00       2.471
  JK-1                  10.74   1000.00   1000.00       2.337
  JK-2                   0.15   1000.00   1000.00       0.048
  WSC                   99.96    256.22    548.79       5.436
  -----------------------------------------------------------
  System                29.56   3622.22   3366.23      13.781
  
  
  ********************
  Link Flow Summary
  ********************
  
  -----------------------------------------------------------------------------
                                 Maximum  Time of Max   Maximum    Max/    Max/
                                  |Flow|   Occurrence   |Veloc|    Full    Full
  Link                 Type          LPS  days hr:min     m/sec    Flow   Depth
  -----------------------------------------------------------------------------
  1                    CONDUIT    548.79     0  02:20      2.82    0.19    0.30
  WS02003060WS02003069 CONDUIT    547.40     0  02:14      1.64    0.21    0.34
  WS02003066WSF200     CONDUIT    531.01     0  02:18      2.85    0.09    0.22
  WS02003067WS02003066 CONDUIT    530.95     0  02:18      1.20    0.17    0.41
  WS02003069WS02003072 CONDUIT    547.14     0  02:19      1.37    0.26    0.38
  WS02003072WS02003073 CONDUIT    547.29     0  02:19      1.43    1.18    0.37
  WS02004401WS02004402 CONDUIT    538.07     0  02:10      1.08    0.65    0.86
  WS02004402WS02004403 CONDUIT    536.86     0  02:18      1.09    0.77    0.88
  WS02004403WS02004404 CONDUIT    536.61     0  02:11      1.05    0.39    0.93
  WS02004404WS02004405 CONDUIT    536.40     0  02:11      1.24    5.26    0.96
  WS02004405WS02004406 CONDUIT    536.40     0  02:11      1.20    1.06    0.95
  WS02004406WS02004407 CONDUIT    535.60     0  02:11      1.04    0.24    0.63
  WS02004407WS02004409 CONDUIT    535.10     0  02:11      1.56    0.19    0.48
  WS02004409WS02004410 CONDUIT    532.93     0  02:16      1.04    0.69    0.67
  WS02004410WS02004411 CONDUIT    532.38     0  02:12      1.00    0.73    0.68
  WS02004411WS02004412 CONDUIT    531.32     0  02:12      0.94    0.75    0.69
  WS02004412WS02004413 CONDUIT    531.32     0  02:17      0.82    0.36    0.77
  WS02004413WS02003067 CONDUIT    530.88     0  02:18      1.10    0.23    0.59
  WS02006109WS02006110 CONDUIT    559.16     0  02:01      1.11    1.08    1.00
  WS02006110WS02006113 CONDUIT    571.66     0  02:23      1.38    0.52    0.79
  WS02006111WS02006112 CONDUIT    544.96     0  02:30      1.87    0.26    0.67
  WS02006112WS02006115 CONDUIT    561.78     0  02:30      0.85    0.33    0.87
  WS02006113WS02006111 CONDUIT    562.84     0  02:18      2.48    0.67    0.46
  WS02006115WS02006116 CONDUIT    543.40     0  02:30      1.09    0.70    0.76
  WS02006116WS02004401 CONDUIT    540.20     0  02:18      1.07    0.74    0.84
  WS02006228WS02006109 CONDUIT    556.20     0  02:01      1.11    2.43    1.00
  WS02006229WS02006228 CONDUIT    555.54     0  02:11      1.11    1.84    1.00
  WS02006230WS02006229 CONDUIT    555.48     0  02:28      1.44   12.36    1.00
  WS02006231WS02006230 CONDUIT    587.47     0  03:07      1.59    8.91    1.00
  WS02006232WS02006231 CONDUIT    579.24     0  02:16      1.51    1.21    1.00
  WS02006234WS02006232 CONDUIT    578.53     0  02:16      1.50    1.17    1.00
  WS02006235WS02006234 CONDUIT    574.59     0  02:16      1.49    6.06    1.00
  WS02006238WS02006235 CONDUIT    424.55     0  02:30      1.51    0.95    1.00
  WS02006239WS02006238 CONDUIT    424.73     0  02:30      1.10    1.36    1.00
  WS02006240WS02006239 CONDUIT    423.90     0  02:35      1.24    1.33    1.00
  WS02006242WS02006240 CONDUIT    422.59     0  02:35      1.13    1.68    1.00
  WS02006243WS02006242 CONDUIT    422.47     0  02:35      1.40    0.90    1.00
  WS02006245WS02006243 CONDUIT    421.87     0  02:35      1.45    1.25    1.00
  WS02006247WS02006245 CONDUIT    421.92     0  03:25      1.43    3.35    1.00
  WS02006248WS02006247 CONDUIT    424.15     0  03:25      1.44    0.92    1.00
  WS02006249WS02006248 CONDUIT    424.43     0  03:25      1.36    2.32    1.00
  WS02006251WS02006249 CONDUIT    459.02     0  00:00      1.99    1.32    1.00
  WS02006252WS02006251 CONDUIT    414.23     0  01:54      3.87    1.52    1.00
  WS02006256WS02006235 CONDUIT    288.91     0  00:00      4.23    3.06    1.00
  WSF200WS02003060     CONDUIT    531.23     0  02:13      2.06    0.12    0.28
  YS02001580YS02001583 CONDUIT    135.35     0  01:46      0.81    0.52    1.00
  YS02001583YS02001586 CONDUIT    188.00     0  01:46      0.80    0.28    1.00
  YS02001586YS02001590 CONDUIT    318.08     0  02:01      1.27    0.56    1.00
  YS02001590YS02001593 CONDUIT    318.00     0  02:06      1.12    2.00    1.00
  YS02001593YS02001596 CONDUIT    317.98     0  01:54      1.73    0.50    1.00
  YS02001596YS02001600 CONDUIT    318.04     0  01:57      1.21    0.62    1.00
  YS02001600YS02001601 CONDUIT    318.15     0  02:01      1.13    0.55    1.00
  YS02001601YS02001602 CONDUIT    557.93     0  01:45      1.97    2.02    1.00
  YS02001602YS02001605 CONDUIT    558.19     0  01:45      1.97   11.81    1.00
  YS02001605YS02001607 CONDUIT    558.14     0  01:45      1.97    3.06    1.00
  YS02001607YS02001610 CONDUIT    543.15     0  01:45      0.69    0.52    1.00
  YS02001610YS02001613 CONDUIT    549.52     0  01:45      0.70    0.63    1.00
  YS02001613YS02001616 CONDUIT    554.63     0  01:45      0.71    0.48    1.00
  YS02001616YS02001619 CONDUIT    532.53     0  01:46      0.68    0.92    1.00
  YS02001619YS02001622 CONDUIT    936.37     0  01:46      1.24    1.38    1.00
  YS02001622YS02001625 CONDUIT    927.82     0  01:46      1.18    0.50    1.00
  YS02001625YS02001629 CONDUIT    929.10     0  01:46      1.19    0.44    1.00
  YS02001629YS02163301 CONDUIT    923.58     0  01:47      1.18    1.14    1.00
  YS02001633YS02163601 CONDUIT   1436.90     0  01:47      1.83    1.51    1.00
  YS02001641YS02001644 CONDUIT   1436.16     0  01:47      1.83    4.64    1.00
  YS02001644YS02001647 CONDUIT   1913.03     0  01:47      2.44    1.12    1.00
  YS02001647YS02001649 CONDUIT   1891.62     0  01:47      2.41    1.00    1.00
  YS02001649YS02001757 CONDUIT   2164.28     0  01:48      2.76    1.31    1.00
  YS02001652YS02001649 CONDUIT    796.97     0  01:51      1.01    0.39    1.00
  YS02001655YS02001652 CONDUIT    797.42     0  01:51      1.43    0.39    1.00
  YS02001658YS02001655 CONDUIT    795.93     0  01:51      1.99    0.34    1.00
  YS02001661YS02001658 CONDUIT    796.43     0  01:51      2.42    0.31    1.00
  YS02001664YS02001661 CONDUIT    791.61     0  01:50      2.45    0.25    0.81
  YS02001745YS02001748 CONDUIT    739.89     0  01:49      2.33    0.28    0.93
  YS02001748YS02001751 CONDUIT    533.70     0  01:50      1.82    0.27    1.00
  YS02001751YS02001754 CONDUIT    535.30     0  01:50      1.53    0.26    1.00
  YS02001754YS02001757 CONDUIT    536.72     0  01:50      0.68    0.22    1.00
  YS02001757CaochengTiaoxuchi CONDUIT   3415.06     0  01:50      4.35    1.48    1.00
  YS02001759YS02001757 CONDUIT   1371.54     0  01:49      1.75    0.97    1.00
  YS02001762YS02001759 CONDUIT    792.84     0  01:49      1.01    0.91    1.00
  YS02001765YS02001762 CONDUIT    792.28     0  01:49      1.01    0.74    1.00
  YS02001767YS02001765 CONDUIT    794.39     0  01:49      1.01    1.00    1.00
  YS02001770YS02001767 CONDUIT    794.99     0  01:49      1.01    3.15    1.00
  YS02001774YS02001770 CONDUIT    524.63     0  01:48      0.67    0.34    1.00
  YS02001779YS02001774 CONDUIT    527.55     0  01:48      0.68    0.27    1.00
  YS02001783YS02001784 CONDUIT   1159.55     0  01:49      2.31    1.60    1.00
  YS02001784YS02001785 CONDUIT   1160.49     0  01:49      2.31    2.70    1.00
  YS02001786YS02001788 CONDUIT   1161.65     0  01:48      2.48    2.24    0.89
  YS02001788YS02001790 CONDUIT   1166.46     0  01:51      2.71    0.86    0.84
  YS02001790YS02001791 CONDUIT   1288.20     0  01:53      3.43    1.40    0.70
  YS02001791YS02001793 CONDUIT   1242.00     0  01:58      6.59    0.53    0.45
  YS02001793JiankangQianchi CONDUIT   1219.30     0  01:58      2.36    0.10    0.65
  YS02001882YS02001884 CONDUIT    113.65     0  01:47      0.14    0.13    1.00
  YS02001884YS02001887 CONDUIT    127.95     0  01:46      0.16    0.17    1.00
  YS02001887YS02001890 CONDUIT    644.17     0  01:50      0.82    1.10    1.00
  YS02001890YS02001895 CONDUIT    540.60     0  01:47      0.69    0.25    1.00
  YS02001895YS02001898 CONDUIT    541.13     0  01:47      0.69    0.94    1.00
  YS02001898YS02001901 CONDUIT    541.64     0  01:47      0.69    0.35    1.00
  YS02001901YS02001904 CONDUIT    542.23     0  01:47      0.69    0.84    1.00
  YS02001904YS02001907 CONDUIT    542.08     0  01:47      0.69    0.19    1.00
  YS02001907YS02006553 CONDUIT    794.15     0  02:07      0.88    0.93    1.00
  YS02001910YS02001907 CONDUIT   1106.89     0  01:49      1.41    0.62    1.00
  YS02001915YS02001910 CONDUIT   1107.03     0  01:49      1.41    0.55    1.00
  YS02001918YS02001915 CONDUIT    580.84     0  01:47      0.74    0.32    1.00
  YS02001920YS02001918 CONDUIT    566.74     0  01:47      0.72    0.55    1.00
  YS02001923YS02001920 CONDUIT    560.02     0  01:48      0.73    0.25    1.00
  YS02001926YS02001923 CONDUIT    781.32     0  01:48      1.21    1.12    1.00
  YS02001929YS02001926 CONDUIT    556.04     0  01:48      1.19    0.26    1.00
  YS02006553YS02006556 CONDUIT    794.35     0  02:07      1.01    0.68    1.00
  YS02006556YS02006558 CONDUIT    796.03     0  02:07      1.01    0.63    1.00
  YS02006558YS02006561 CONDUIT   1183.78     0  01:48      4.19    2.62    1.00
  YS02006561YS02001783 CONDUIT   1159.56     0  01:49      2.31    0.60    1.00
  YS02163301YS02001633 CONDUIT    923.39     0  01:47      1.18    0.87    1.00
  YS02163601YS02164001 CONDUIT   1436.54     0  01:47      1.83    1.27    1.00
  YS02164001YS02001641 CONDUIT   1435.75     0  01:47      1.83    1.96    1.00
  CC-R1                PUMP       683.00     0  00:00              1.00
  CC-R2                PUMP       683.00     0  00:00              1.00
  CC-S1                PUMP       200.00     0  00:00              1.00
  CC-S2                PUMP       200.00     0  00:00              1.00
  JK-R1                PUMP      1000.00     0  00:00              1.00
  JK-R2                PUMP      1000.00     0  00:00              1.00
  JK-S                 PUMP       300.00     0  00:00              1.00
  
  
  ***************************
  Flow Classification Summary
  ***************************
  
  -------------------------------------------------------------------------------------
                      Adjusted    ---------- Fraction of Time in Flow Class ---------- 
                       /Actual         Up    Down  Sub   Sup   Up    Down  Norm  Inlet 
  Conduit               Length    Dry  Dry   Dry   Crit  Crit  Crit  Crit  Ltd   Ctrl  
  -------------------------------------------------------------------------------------
  1                       1.00   0.00  0.00  0.00  0.00  1.00  0.00  0.00  0.48  0.00
  WS02003060WS02003069    1.00   0.00  0.00  0.00  0.98  0.02  0.00  0.00  0.70  0.00
  WS02003066WSF200        1.00   0.08  0.00  0.00  0.00  0.92  0.00  0.00  0.82  0.00
  WS02003067WS02003066    1.00   0.07  0.01  0.00  0.93  0.00  0.00  0.00  0.00  0.00
  WS02003069WS02003072    1.00   0.00  0.00  0.00  0.99  0.01  0.00  0.00  0.72  0.00
  WS02003072WS02003073    1.00   0.00  0.00  0.00  0.00  0.00  0.00  1.00  0.00  0.00
  WS02004401WS02004402    1.00   0.02  0.00  0.00  0.98  0.00  0.00  0.00  0.00  0.00
  WS02004402WS02004403    1.00   0.02  0.00  0.00  0.97  0.00  0.00  0.00  0.00  0.00
  WS02004403WS02004404    1.00   0.00  0.03  0.00  0.97  0.00  0.00  0.00  0.00  0.00
  WS02004404WS02004405    1.00   0.00  0.00  0.00  1.00  0.00  0.00  0.00  0.00  0.00
  WS02004405WS02004406    1.00   0.00  0.00  0.00  1.00  0.00  0.00  0.00  0.00  0.00
  WS02004406WS02004407    1.00   0.00  0.04  0.00  0.96  0.00  0.00  0.00  0.00  0.00
  WS02004407WS02004409    1.00   0.04  0.00  0.00  0.95  0.01  0.00  0.00  0.95  0.00
  WS02004409WS02004410    1.00   0.04  0.00  0.00  0.96  0.00  0.00  0.00  0.00  0.00
  WS02004410WS02004411    1.00   0.04  0.00  0.00  0.96  0.00  0.00  0.00  0.00  0.00
  WS02004411WS02004412    1.00   0.04  0.00  0.00  0.96  0.00  0.00  0.00  0.00  0.00
  WS02004412WS02004413    1.00   0.04  0.00  0.00  0.95  0.00  0.00  0.00  0.01  0.00
  WS02004413WS02003067    1.00   0.05  0.02  0.00  0.00  0.00  0.93  0.00  0.00  0.00
  WS02006109WS02006110    1.00   0.00  0.01  0.00  0.98  0.00  0.01  0.00  0.00  0.00
  WS02006110WS02006113    1.00   0.01  0.01  0.00  0.98  0.00  0.00  0.00  0.00  0.00
  WS02006111WS02006112    1.00   0.02  0.00  0.00  0.98  0.00  0.00  0.00  0.98  0.00
  WS02006112WS02006115    1.00   0.02  0.00  0.00  0.97  0.00  0.00  0.00  0.00  0.00
  WS02006113WS02006111    1.00   0.02  0.00  0.00  0.00  0.98  0.00  0.00  0.13  0.00
  WS02006115WS02006116    1.00   0.02  0.00  0.00  0.97  0.00  0.00  0.01  0.00  0.00
  WS02006116WS02004401    1.00   0.02  0.00  0.00  0.98  0.00  0.00  0.00  0.00  0.00
  WS02006228WS02006109    1.00   0.00  0.00  0.00  1.00  0.00  0.00  0.00  0.00  0.00
  WS02006229WS02006228    1.00   0.00  0.00  0.00  0.99  0.00  0.00  0.01  0.00  0.00
  WS02006230WS02006229    1.00   0.00  0.00  0.00  0.99  0.00  0.00  0.01  0.00  0.00
  WS02006231WS02006230    1.00   0.00  0.00  0.00  0.27  0.00  0.72  0.00  0.00  0.00
  WS02006232WS02006231    1.00   0.00  0.00  0.00  0.99  0.00  0.01  0.00  0.00  0.00
  WS02006234WS02006232    1.00   0.00  0.00  0.00  1.00  0.00  0.00  0.00  0.21  0.00
  WS02006235WS02006234    1.00   0.00  0.00  0.00  0.73  0.00  0.27  0.00  0.00  0.00
  WS02006238WS02006235    1.00   0.00  0.00  0.00  1.00  0.00  0.00  0.00  0.00  0.00
  WS02006239WS02006238    1.00   0.00  0.00  0.00  1.00  0.00  0.00  0.00  0.36  0.00
  WS02006240WS02006239    1.00   0.00  0.00  0.00  0.57  0.00  0.00  0.42  0.03  0.00
  WS02006242WS02006240    1.00   0.00  0.00  0.00  0.99  0.00  0.01  0.00  0.00  0.00
  WS02006243WS02006242    1.00   0.00  0.00  0.00  0.99  0.00  0.00  0.01  0.54  0.00
  WS02006245WS02006243    1.00   0.00  0.00  0.00  0.65  0.00  0.00  0.35  0.01  0.00
  WS02006247WS02006245    1.00   0.00  0.00  0.00  0.99  0.00  0.00  0.01  0.00  0.00
  WS02006248WS02006247    1.00   0.00  0.00  0.00  0.99  0.00  0.00  0.01  0.22  0.00
  WS02006249WS02006248    1.00   0.00  0.00  0.00  0.45  0.00  0.55  0.00  0.00  0.00
  WS02006251WS02006249    1.00   0.00  0.00  0.00  1.00  0.00  0.00  0.00  0.56  0.00
  WS02006252WS02006251    1.00   0.00  0.58  0.00  0.12  0.00  0.30  0.00  0.00  0.00
  WS02006256WS02006235    1.00   0.00  0.00  0.00  1.00  0.00  0.00  0.00  0.00  0.00
  WSF200WS02003060        1.00   0.00  0.08  0.00  0.37  0.55  0.00  0.00  0.53  0.00
  YS02001580YS02001583    1.00   0.22  0.59  0.00  0.19  0.00  0.00  0.00  0.69  0.00
  YS02001583YS02001586    1.00   0.43  0.33  0.00  0.24  0.00  0.00  0.00  0.69  0.00
  YS02001586YS02001590    1.00   0.13  0.00  0.00  0.41  0.04  0.00  0.42  0.35  0.00
  YS02001590YS02001593    1.00   0.13  0.01  0.00  0.11  0.00  0.76  0.00  0.00  0.00
  YS02001593YS02001596    1.00   0.13  0.00  0.00  0.13  0.01  0.00  0.73  0.02  0.00
  YS02001596YS02001600    1.00   0.14  0.00  0.00  0.20  0.01  0.00  0.66  0.05  0.00
  YS02001600YS02001601    1.00   0.13  0.01  0.00  0.86  0.00  0.00  0.00  0.61  0.00
  YS02001601YS02001602    1.00   0.13  0.01  0.00  0.86  0.00  0.00  0.00  0.00  0.00
  YS02001602YS02001605    1.00   0.14  0.00  0.00  0.86  0.00  0.00  0.00  0.00  0.00
  YS02001605YS02001607    1.00   0.14  0.00  0.00  0.86  0.00  0.00  0.00  0.00  0.00
  YS02001607YS02001610    1.00   0.13  0.01  0.00  0.86  0.00  0.00  0.00  0.01  0.00
  YS02001610YS02001613    1.00   0.13  0.00  0.00  0.87  0.00  0.00  0.00  0.00  0.00
  YS02001613YS02001616    1.00   0.13  0.00  0.00  0.87  0.00  0.00  0.00  0.00  0.00
  YS02001616YS02001619    1.00   0.13  0.00  0.00  0.87  0.00  0.00  0.00  0.00  0.00
  YS02001619YS02001622    1.00   0.13  0.00  0.00  0.87  0.00  0.00  0.00  0.30  0.00
  YS02001622YS02001625    1.00   0.13  0.00  0.00  0.87  0.00  0.00  0.00  0.04  0.00
  YS02001625YS02001629    1.00   0.13  0.05  0.00  0.15  0.00  0.67  0.00  0.00  0.00
  YS02001629YS02163301    1.00   0.15  0.01  0.00  0.84  0.00  0.00  0.00  0.00  0.00
  YS02001633YS02163601    1.00   0.00  0.01  0.00  0.99  0.00  0.00  0.00  0.15  0.00
  YS02001641YS02001644    1.00   0.00  0.01  0.00  0.99  0.00  0.00  0.00  0.00  0.00
  YS02001644YS02001647    1.00   0.00  0.17  0.00  0.83  0.00  0.00  0.00  0.00  0.00
  YS02001647YS02001649    1.00   0.00  0.17  0.00  0.56  0.27  0.00  0.00  0.56  0.00
  YS02001649YS02001757    1.00   0.00  0.00  0.00  0.90  0.10  0.00  0.00  0.43  0.00
  YS02001652YS02001649    1.00   0.00  0.00  0.00  0.97  0.03  0.00  0.00  0.73  0.00
  YS02001655YS02001652    1.00   0.00  0.00  0.00  0.19  0.01  0.00  0.80  0.06  0.00
  YS02001658YS02001655    1.00   0.00  0.14  0.00  0.66  0.20  0.00  0.00  0.68  0.00
  YS02001661YS02001658    1.00   0.14  0.00  0.00  0.50  0.36  0.00  0.00  0.72  0.00
  YS02001664YS02001661    1.00   0.13  0.00  0.00  0.77  0.11  0.00  0.00  0.86  0.00
  YS02001745YS02001748    1.00   0.00  0.00  0.00  0.09  0.01  0.00  0.90  0.05  0.00
  YS02001748YS02001751    1.00   0.00  0.00  0.00  0.82  0.18  0.00  0.00  0.77  0.00
  YS02001751YS02001754    1.00   0.00  0.00  0.00  0.16  0.00  0.00  0.83  0.04  0.00
  YS02001754YS02001757    1.00   0.00  0.00  0.00  1.00  0.00  0.00  0.00  0.79  0.00
  YS02001757CaochengTiaoxuchi    1.00   0.00  0.00  0.00  0.99  0.01  0.00  0.00  0.57  0.00
  YS02001759YS02001757    1.00   0.00  0.00  0.00  1.00  0.00  0.00  0.00  0.52  0.00
  YS02001762YS02001759    1.00   0.00  0.00  0.00  1.00  0.00  0.00  0.00  0.06  0.00
  YS02001765YS02001762    1.00   0.00  0.00  0.00  1.00  0.00  0.00  0.00  0.67  0.00
  YS02001767YS02001765    1.00   0.00  0.00  0.00  1.00  0.00  0.00  0.00  0.01  0.00
  YS02001770YS02001767    1.00   0.00  0.00  0.00  1.00  0.00  0.00  0.00  0.00  0.00
  YS02001774YS02001770    1.00   0.00  0.13  0.00  0.70  0.00  0.17  0.00  0.03  0.00
  YS02001779YS02001774    1.00   0.00  0.00  0.00  1.00  0.00  0.00  0.00  0.78  0.00
  YS02001783YS02001784    1.00   0.00  0.18  0.00  0.82  0.00  0.00  0.00  0.56  0.00
  YS02001784YS02001785    1.00   0.00  0.00  0.00  1.00  0.00  0.00  0.00  0.17  0.00
  YS02001786YS02001788    1.00   0.00  0.00  0.00  0.79  0.21  0.00  0.00  0.00  0.00
  YS02001788YS02001790    1.00   0.00  0.00  0.00  0.21  0.79  0.00  0.00  0.81  0.00
  YS02001790YS02001791    1.00   0.00  0.00  0.00  0.01  0.99  0.00  0.00  0.17  0.00
  YS02001791YS02001793    1.00   0.00  0.00  0.00  0.00  1.00  0.00  0.00  0.01  0.00
  YS02001793JiankangQianchi    1.00   0.00  0.00  0.00  0.99  0.01  0.00  0.00  0.95  0.00
  YS02001882YS02001884    1.00   0.15  0.01  0.00  0.84  0.00  0.00  0.00  0.00  0.00
  YS02001884YS02001887    1.00   0.06  0.05  0.00  0.89  0.00  0.00  0.00  0.00  0.00
  YS02001887YS02001890    1.00   0.00  0.00  0.00  0.97  0.00  0.03  0.00  0.00  0.00
  YS02001890YS02001895    1.00   0.00  0.16  0.00  0.84  0.00  0.00  0.00  0.00  0.00
  YS02001895YS02001898    1.00   0.16  0.00  0.00  0.82  0.00  0.02  0.00  0.00  0.00
  YS02001898YS02001901    1.00   0.17  0.00  0.00  0.83  0.00  0.00  0.00  0.01  0.00
  YS02001901YS02001904    1.00   0.17  0.00  0.00  0.83  0.00  0.00  0.00  0.00  0.00
  YS02001904YS02001907    1.00   0.00  0.16  0.00  0.83  0.00  0.00  0.00  0.00  0.00
  YS02001907YS02006553    1.00   0.00  0.02  0.00  0.98  0.00  0.00  0.00  0.00  0.00
  YS02001910YS02001907    1.00   0.00  0.00  0.00  0.97  0.00  0.00  0.03  0.12  0.00
  YS02001915YS02001910    1.00   0.00  0.00  0.00  0.97  0.03  0.00  0.00  0.16  0.00
  YS02001918YS02001915    1.00   0.00  0.01  0.00  0.98  0.02  0.00  0.00  0.76  0.00
  YS02001920YS02001918    1.00   0.00  0.01  0.00  0.99  0.00  0.00  0.00  0.00  0.00
  YS02001923YS02001920    1.00   0.00  0.00  0.00  1.00  0.00  0.00  0.00  0.93  0.00
  YS02001926YS02001923    1.00   0.00  0.07  0.00  0.06  0.00  0.87  0.00  0.00  0.00
  YS02001929YS02001926    1.00   0.00  0.13  0.00  0.87  0.00  0.00  0.00  0.83  0.00
  YS02006553YS02006556    1.00   0.01  0.00  0.00  0.99  0.00  0.00  0.00  0.03  0.00
  YS02006556YS02006558    1.00   0.00  0.00  0.00  1.00  0.00  0.00  0.00  0.00  0.00
  YS02006558YS02006561    1.00   0.18  0.00  0.00  0.05  0.77  0.00  0.00  0.19  0.00
  YS02006561YS02001783    1.00   0.18  0.00  0.00  0.08  0.74  0.00  0.00  0.70  0.00
  YS02163301YS02001633    1.00   0.00  0.15  0.00  0.85  0.00  0.00  0.00  0.00  0.00
  YS02163601YS02164001    1.00   0.00  0.08  0.00  0.92  0.00  0.00  0.00  0.00  0.00
  YS02164001YS02001641    1.00   0.01  0.07  0.00  0.92  0.00  0.00  0.00  0.06  0.00
  
  
  *************************
  Conduit Surcharge Summary
  *************************
  
  ----------------------------------------------------------------------------
                                                           Hours        Hours 
                         --------- Hours Full --------   Above Full   Capacity
  Conduit                Both Ends  Upstream  Dnstream   Normal Flow   Limited
  ----------------------------------------------------------------------------
  WS02003072WS02003073        0.01      0.01      0.01      1.40         0.01
  WS02004404WS02004405        0.01      0.01      0.01      3.31         0.01
  WS02004405WS02004406        0.01      0.01      0.01      0.67         0.01
  WS02006109WS02006110        0.67      0.67      2.10      0.85         0.01
  WS02006110WS02006113        0.01      0.01      2.09      0.01         0.01
  WS02006111WS02006112        0.01      0.01      2.24      0.01         0.01
  WS02006112WS02006115        0.01      0.01      0.76      0.01         0.01
  WS02006228WS02006109        2.07      2.11      2.07      2.50         2.07
  WS02006229WS02006228        2.07      2.08      2.07      2.23         2.05
  WS02006230WS02006229        2.15      2.22      2.15      4.00         2.15
  WS02006231WS02006230        0.67      0.67      0.98      3.68         0.01
  WS02006232WS02006231        0.90      0.90      2.11      0.99         0.01
  WS02006234WS02006232        2.00      2.00      2.11      0.96         0.96
  WS02006235WS02006234        1.36      1.37      2.01      3.54         0.03
  WS02006238WS02006235        2.04      2.04      2.10      0.01         0.01
  WS02006239WS02006238        2.08      2.10      2.08      2.07         1.81
  WS02006240WS02006239        2.01      2.04      2.02      2.07         1.71
  WS02006242WS02006240        2.04      2.04      2.08      2.21         0.01
  WS02006243WS02006242        2.04      2.04      2.05      0.01         0.07
  WS02006245WS02006243        2.03      2.03      2.04      1.35         1.32
  WS02006247WS02006245        2.03      2.03      2.03      3.32         2.01
  WS02006248WS02006247        2.02      2.02      2.03      0.01         0.08
  WS02006249WS02006248        2.02      2.02      2.02      3.29         0.01
  WS02006251WS02006249        2.02      2.02      2.02      2.12         1.91
  WS02006252WS02006251        2.16      2.16      2.17      2.17         0.01
  WS02006256WS02006235        3.52      3.58      5.07      1.33         0.01
  YS02001580YS02001583        0.53      0.53      0.59      0.01         0.01
  YS02001583YS02001586        0.54      0.54      0.69      0.01         0.01
  YS02001586YS02001590        0.70      0.70      0.76      0.01         0.01
  YS02001590YS02001593        0.76      0.76      0.78      0.82         0.01
  YS02001593YS02001596        0.77      0.77      0.87      0.01         0.01
  YS02001596YS02001600        0.91      0.91      1.02      0.01         0.01
  YS02001600YS02001601        1.08      1.08      1.43      0.01         0.01
  YS02001601YS02001602        1.29      1.29      1.47      1.03         0.01
  YS02001602YS02001605        1.22      1.22      1.29      2.18         0.01
  YS02001605YS02001607        1.17      1.22      1.17      1.38         1.17
  YS02001607YS02001610        0.74      0.74      0.77      0.01         0.01
  YS02001610YS02001613        0.74      0.74      0.77      0.01         0.01
  YS02001613YS02001616        0.70      0.70      0.74      0.01         0.01
  YS02001616YS02001619        0.69      0.69      0.70      0.01         0.01
  YS02001619YS02001622        0.68      0.69      0.68      0.78         0.65
  YS02001622YS02001625        0.68      0.68      0.86      0.01         0.01
  YS02001625YS02001629        0.64      0.64      0.86      0.01         0.01
  YS02001629YS02163301        0.86      0.86      0.87      0.06         0.16
  YS02001633YS02163601        0.89      0.89      0.91      0.34         0.34
  YS02001641YS02001644        0.81      0.83      0.81      1.50         0.79
  YS02001644YS02001647        0.61      0.61      0.81      0.04         0.01
  YS02001647YS02001649        0.61      0.61      0.73      0.01         0.01
  YS02001649YS02001757        0.73      0.73      0.80      0.06         0.10
  YS02001652YS02001649        0.55      0.55      0.73      0.01         0.01
  YS02001655YS02001652        0.32      0.32      0.52      0.01         0.01
  YS02001658YS02001655        0.14      0.14      0.32      0.01         0.01
  YS02001661YS02001658        0.01      0.01      0.14      0.01         0.01
  YS02001664YS02001661        0.01      0.01      0.02      0.01         0.01
  YS02001745YS02001748        0.01      0.01      0.04      0.01         0.01
  YS02001748YS02001751        0.11      0.11      0.22      0.01         0.01
  YS02001751YS02001754        0.22      0.22      0.42      0.01         0.01
  YS02001754YS02001757        0.46      0.46      0.80      0.01         0.01
  YS02001757CaochengTiaoxuchi        0.76      0.80      2.03      0.33         0.27
  YS02001759YS02001757        0.70      0.70      0.80      0.01         0.01
  YS02001762YS02001759        0.66      0.66      0.70      0.01         0.02
  YS02001765YS02001762        0.62      0.62      0.66      0.01         0.01
  YS02001767YS02001765        0.58      0.58      0.62      0.01         0.04
  YS02001770YS02001767        0.57      0.57      0.58      0.49         0.39
  YS02001774YS02001770        0.54      0.54      0.64      0.01         0.01
  YS02001779YS02001774        0.41      0.41      0.64      0.01         0.01
  YS02001783YS02001784        0.47      0.49      0.47      0.63         0.47
  YS02001784YS02001785        0.37      0.47      0.37      0.86         0.37
  YS02001786YS02001788        0.01      0.37      0.01      0.72         0.01
  YS02001790YS02001791        0.01      0.01      0.01      0.46         0.01
  YS02001793JiankangQianchi        0.01      0.01      7.70      0.01         0.01
  YS02001882YS02001884        0.44      0.44      0.45      0.01         0.01
  YS02001884YS02001887        0.47      0.47      0.48      0.01         0.01
  YS02001887YS02001890        0.50      0.50      0.51      0.06         0.01
  YS02001890YS02001895        0.43      0.43      0.53      0.01         0.01
  YS02001895YS02001898        0.42      0.42      0.43      0.01         0.01
  YS02001898YS02001901        0.43      0.43      0.47      0.01         0.01
  YS02001901YS02001904        0.46      0.46      0.47      0.01         0.01
  YS02001904YS02001907        0.46      0.46      0.71      0.01         0.01
  YS02001907YS02006553        0.87      0.87      0.94      0.01         0.01
  YS02001910YS02001907        0.52      0.52      0.69      0.01         0.01
  YS02001915YS02001910        0.44      0.44      0.52      0.01         0.01
  YS02001918YS02001915        0.36      0.36      0.44      0.01         0.01
  YS02001920YS02001918        0.36      0.36      0.37      0.01         0.01
  YS02001923YS02001920        0.31      0.31      0.37      0.01         0.01
  YS02001926YS02001923        0.01      0.01      0.02      0.01         0.01
  YS02001929YS02001926        0.01      0.01      0.02      0.01         0.01
  YS02006553YS02006556        0.61      0.61      0.70      0.01         0.01
  YS02006556YS02006558        0.65      0.65      0.72      0.01         0.01
  YS02006558YS02006561        0.39      0.60      0.39      0.81         0.39
  YS02006561YS02001783        0.32      0.32      0.49      0.01         0.01
  YS02163301YS02001633        0.87      0.87      0.90      0.01         0.01
  YS02163601YS02164001        0.83      0.83      0.91      0.04         0.01
  YS02164001YS02001641        0.83      0.83      0.83      0.73         0.64
  
  
  ***************
  Pumping Summary
  ***************
  
  ---------------------------------------------------------------------------------------------------------
                                                  Min       Avg       Max     Total     Power    % Time Off
                        Percent   Number of      Flow      Flow      Flow    Volume     Usage    Pump Curve
  Pump                 Utilized   Start-Ups       LPS       LPS       LPS  10^6 ltr     Kw-hr    Low   High
  ---------------------------------------------------------------------------------------------------------
  CC-R1                   17.73           2      0.00    683.00    683.00     3.488     65.25    0.0    9.9
  CC-R2                   12.56           2      0.00    683.00    683.00     2.471     46.47    0.0   14.0
  CC-S1                   41.41           3      0.00    200.00    200.00     2.385     13.77    0.0    0.0
  CC-S2                   27.79           2      0.00    200.00    200.00     1.601      9.08    0.0    0.0
  JK-R1                    8.12          13      0.00   1000.00   1000.00     2.337     27.78    0.0    0.0
  JK-R2                    0.16           1      0.00   1000.00   1000.00     0.047      0.36    0.0    0.0
  JK-S                    16.53          24      0.00    300.00    300.00     1.428     18.99    0.0    0.0
  

  Analysis begun on:  Thu Apr 24 00:06:01 2025
  Analysis ended on:  Thu Apr 24 00:06:03 2025
  Total elapsed time: 00:00:02