
  EPA STORM WATER MANAGEMENT MODEL - VERSION 5.2 (Build 5.2.4)
  PYSWMM TOOLKIT API - VERSION v1.0 (2023-11-27)
  ------------------------------------------------------------

  WARNING 04: minimum elevation drop used for Conduit WS02004404WS02004405
  WARNING 03: negative offset ignored for Link YS02001904YS02001907
  
  ****************
  Analysis Options
  ****************
  Flow Units ............... LPS
  Process Models:
    Rainfall/Runoff ........ YES
    RDII ................... NO
    Snowmelt ............... NO
    Groundwater ............ NO
    Flow Routing ........... YES
    Ponding Allowed ........ NO
    Water Quality .......... NO
  Infiltration Method ...... HORTON
  Flow Routing Method ...... DYNWAVE
  Surcharge Method ......... EXTRAN
  Starting Date ............ 08/28/2015 08:00:00
  Ending Date .............. 08/28/2015 16:00:00
  Antecedent Dry Days ...... 8.0
  Report Time Step ......... 00:01:00
  Wet Time Step ............ 00:01:00
  Dry Time Step ............ 00:01:00
  Routing Time Step ........ 30.00 sec
  Variable Time Step ....... YES
  Maximum Trials ........... 8
  Number of Threads ........ 4
  Head Tolerance ........... 0.001500 m
  
  
  **************************        Volume         Depth
  Runoff Quantity Continuity     hectare-m            mm
  **************************     ---------       -------
  Total Precipitation ......         2.988        90.085
  Evaporation Loss .........         0.000         0.000
  Infiltration Loss ........         0.102         3.067
  Surface Runoff ...........         2.854        86.049
  Final Storage ............         0.033         0.995
  Continuity Error (%) .....        -0.029
  
  
  **************************        Volume        Volume
  Flow Routing Continuity        hectare-m      10^6 ltr
  **************************     ---------     ---------
  Dry Weather Inflow .......         0.025         0.251
  Wet Weather Inflow .......         2.854        28.540
  Groundwater Inflow .......         0.000         0.000
  RDII Inflow ..............         0.000         0.000
  External Inflow ..........         0.083         0.834
  External Outflow .........         1.627        16.268
  Flooding Loss ............         1.303        13.030
  Evaporation Loss .........         0.000         0.000
  Exfiltration Loss ........         0.000         0.000
  Initial Stored Volume ....         0.243         2.431
  Final Stored Volume ......         0.281         2.809
  Continuity Error (%) .....        -0.163
  
  
  *************************
  Highest Continuity Errors
  *************************
  Node YS02001884 (5.48%)
  Node YS02001583 (-3.67%)
  
  
  ***************************
  Time-Step Critical Elements
  ***************************
  Link WS02006252WS02006251 (43.91%)
  Link WS02004404WS02004405 (16.59%)
  Link WS02006238WS02006235 (10.98%)
  Link YS02001791YS02001793 (8.07%)
  Link WS02006235WS02006234 (5.22%)
  
  
  ********************************
  Highest Flow Instability Indexes
  ********************************
  Link WS02006113WS02006111 (46)
  Link WS02006111WS02006112 (25)
  Link WS02004404WS02004405 (21)
  Link WS02004403WS02004404 (18)
  Link WS02006252WS02006251 (18)
  
  
  *********************************
  Most Frequent Nonconverging Nodes
  *********************************
  Node CC-1 (12.93%)
  Node CC-2 (12.93%)
  Node JK-1 (12.93%)
  Node JK-2 (12.93%)
  Node WSC (12.93%)
  
  
  *************************
  Routing Time Step Summary
  *************************
  Minimum Time Step           :     0.01 sec
  Average Time Step           :     2.03 sec
  Maximum Time Step           :     7.04 sec
  % of Time in Steady State   :     0.00
  Average Iterations per Step :     3.16
  % of Steps Not Converging   :    12.93
  Time Step Frequencies       :
     30.000 - 13.228 sec      :     0.00 %
     13.228 -  5.833 sec      :     9.30 %
      5.833 -  2.572 sec      :    18.50 %
      2.572 -  1.134 sec      :    21.92 %
      1.134 -  0.500 sec      :    50.29 %
  
  
  ***************************
  Subcatchment Runoff Summary
  ***************************
  
  ------------------------------------------------------------------------------------------------------------------------------
                            Total      Total      Total      Total     Imperv       Perv      Total       Total     Peak  Runoff
                           Precip      Runon       Evap      Infil     Runoff     Runoff     Runoff      Runoff   Runoff   Coeff
  Subcatchment                 mm         mm         mm         mm         mm         mm         mm    10^6 ltr      LPS
  ------------------------------------------------------------------------------------------------------------------------------
  sub60                     90.08       0.00       0.00       1.83      78.09       8.98      87.07        1.14   906.32   0.967
  sub61                     90.08       0.00       0.00       2.66      73.65      12.66      86.32        1.58  1260.88   0.958
  sub62                     90.08       0.00       0.00       1.22      81.60       5.99      87.59        2.40  1776.03   0.972
  sub63                     90.08       0.00       0.00       4.91      63.00      21.23      84.23        1.91  1426.86   0.935
  sub64                     90.08       0.00       0.00       2.48      75.38      11.04      86.41        2.08  1457.36   0.959
  sub65                     90.08       0.00       0.00       2.15      77.13       9.57      86.70        2.39  1626.01   0.962
  sub66                     90.08       0.00       0.00       6.12      62.89      20.01      82.90        3.87  2154.00   0.920
  sub67                     90.08       0.00       0.00       1.18      81.65       6.04      87.68        1.63  1370.55   0.973
  sub68                     90.08       0.00       0.00       2.20      76.30      10.42      86.71        2.39  1819.79   0.963
  sub69                     90.08       0.00       0.00       1.97      76.47      11.55      88.02        3.26  2158.58   0.977
  sub70                     90.08       0.00       0.00       6.66      59.30      23.97      83.27        2.41  1201.28   0.924
  sub71                     90.08       0.00       0.00       1.25      81.56       5.96      87.52        2.29  1570.26   0.972
  sub72                     90.08       0.00       0.00       1.11      82.39       5.19      87.58        1.20   758.68   0.972
  
  
  ******************
  Node Depth Summary
  ******************
  
  ---------------------------------------------------------------------------------
                                 Average  Maximum  Maximum  Time of Max    Reported
                                   Depth    Depth      HGL   Occurrence   Max Depth
  Node                 Type       Meters   Meters   Meters  days hr:min      Meters
  ---------------------------------------------------------------------------------
  WS02003060           JUNCTION     0.24     0.38     5.32     0  02:26        0.38
  WS02003066           JUNCTION     0.20     0.30     5.85     0  03:12        0.30
  WS02003067           JUNCTION     0.51     0.70     6.02     0  02:23        0.70
  WS02003069           JUNCTION     0.27     0.43     5.01     0  03:13        0.43
  WS02003072           JUNCTION     0.33     0.50     4.87     0  03:14        0.50
  WS02003073           JUNCTION     0.19     0.30     4.36     0  03:14        0.30
  WS02004401           JUNCTION     0.61     0.87     6.87     0  03:10        0.87
  WS02004402           JUNCTION     0.64     0.90     6.86     0  03:08        0.90
  WS02004403           JUNCTION     0.66     0.92     6.85     0  02:18        0.92
  WS02004404           JUNCTION     0.74     1.02     6.87     0  02:26        1.00
  WS02004405           JUNCTION     0.72     0.97     6.82     0  02:20        0.96
  WS02004406           JUNCTION     0.73     0.96     6.79     0  03:07        0.96
  WS02004407           JUNCTION     0.18     0.30     6.61     0  02:21        0.30
  WS02004409           JUNCTION     0.40     0.67     6.44     0  02:22        0.67
  WS02004410           JUNCTION     0.43     0.68     6.40     0  02:22        0.68
  WS02004411           JUNCTION     0.45     0.69     6.37     0  02:22        0.69
  WS02004412           JUNCTION     0.47     0.70     6.34     0  03:11        0.70
  WS02004413           JUNCTION     0.63     0.86     6.33     0  03:12        0.86
  WS02006109           JUNCTION     0.65     1.23     7.85     0  01:58        1.23
  WS02006110           JUNCTION     0.66     1.25     7.83     0  03:30        1.11
  WS02006111           JUNCTION     0.18     0.29     6.99     0  03:06        0.29
  WS02006112           JUNCTION     0.76     1.08     6.96     0  03:19        1.07
  WS02006113           JUNCTION     0.27     0.46     7.35     0  03:00        0.46
  WS02006115           JUNCTION     0.49     0.77     6.91     0  03:10        0.77
  WS02006116           JUNCTION     0.58     0.85     6.89     0  02:20        0.85
  WS02006228           JUNCTION     0.64     1.38     8.03     0  02:11        1.34
  WS02006229           JUNCTION     0.62     1.45     8.14     0  02:11        1.42
  WS02006230           JUNCTION     0.62     1.71     8.46     0  02:11        1.26
  WS02006231           JUNCTION     0.42     1.41     8.53     0  02:05        1.38
  WS02006232           JUNCTION     0.56     1.70     8.74     0  03:30        1.70
  WS02006234           JUNCTION     0.48     1.96     9.12     0  01:52        1.68
  WS02006235           JUNCTION     0.52     2.00     9.16     0  02:25        1.65
  WS02006238           JUNCTION     0.55     2.04     9.18     0  02:25        1.67
  WS02006239           JUNCTION     0.52     1.97     9.18     0  02:25        1.54
  WS02006240           JUNCTION     0.48     1.80     9.09     0  02:25        1.41
  WS02006242           JUNCTION     0.56     1.55     8.82     0  02:09        1.55
  WS02006243           JUNCTION     0.47     1.46     8.88     0  02:57        1.45
  WS02006245           JUNCTION     0.47     1.39     8.88     0  02:27        1.39
  WS02006247           JUNCTION     0.50     1.31     8.81     0  02:57        1.26
  WS02006248           JUNCTION     0.46     1.10     8.69     0  01:52        1.10
  WS02006249           JUNCTION     0.49     1.09     8.69     0  01:50        1.09
  WS02006251           JUNCTION     0.50     1.93     9.60     0  01:50        1.23
  WS02006252           JUNCTION     0.36     1.50     9.74     0  00:00        0.92
  WS02006256           JUNCTION     0.98     2.35     9.28     0  00:00        2.35
  WSF200               JUNCTION     0.17     0.29     5.52     0  02:25        0.29
  YS02001580           JUNCTION     0.10     1.05     9.59     0  01:50        0.77
  YS02001583           JUNCTION     0.14     1.02     9.51     0  01:50        0.83
  YS02001586           JUNCTION     0.21     1.13     9.30     0  01:50        1.13
  YS02001590           JUNCTION     0.31     1.40     9.26     0  02:09        1.40
  YS02001593           JUNCTION     0.24     1.39     9.26     0  02:27        1.39
  YS02001596           JUNCTION     0.32     1.66     9.08     0  02:08        1.66
  YS02001600           JUNCTION     0.38     1.87     9.00     0  02:27        1.87
  YS02001601           JUNCTION     0.57     2.06     8.90     0  01:49        2.06
  YS02001602           JUNCTION     0.48     1.87     8.77     0  01:50        1.87
  YS02001605           JUNCTION     0.45     1.78     8.68     0  01:50        1.78
  YS02001607           JUNCTION     0.45     1.67     8.51     0  02:09        1.67
  YS02001610           JUNCTION     0.49     1.68     8.48     0  01:50        1.68
  YS02001613           JUNCTION     0.45     1.68     8.52     0  01:50        1.67
  YS02001616           JUNCTION     0.38     1.61     8.52     0  01:50        1.61
  YS02001619           JUNCTION     0.36     1.61     8.54     0  01:58        1.61
  YS02001622           JUNCTION     0.35     1.59     8.50     0  02:04        1.59
  YS02001625           JUNCTION     0.62     1.78     8.38     0  01:50        1.78
  YS02001629           JUNCTION     0.47     1.85     8.40     0  01:50        1.85
  YS02001633           JUNCTION     0.55     2.08     8.53     0  02:01        2.05
  YS02001641           JUNCTION     0.54     2.04     8.48     0  02:08        1.95
  YS02001644           JUNCTION     0.54     1.92     8.35     0  01:54        1.92
  YS02001647           JUNCTION     0.33     1.81     8.42     0  01:55        1.78
  YS02001649           JUNCTION     0.38     2.05     8.44     0  01:55        2.04
  YS02001652           JUNCTION     0.27     1.95     8.55     0  02:01        1.94
  YS02001655           JUNCTION     0.22     1.82     8.67     0  02:01        1.82
  YS02001658           JUNCTION     0.16     1.76     8.90     0  01:55        1.63
  YS02001661           JUNCTION     0.18     1.49     8.90     0  02:01        1.49
  YS02001664           JUNCTION     0.06     1.09     9.02     0  02:01        1.09
  YS02001745           JUNCTION     0.09     1.08     8.59     0  02:01        1.06
  YS02001748           JUNCTION     0.15     2.27     9.35     0  01:55        1.45
  YS02001751           JUNCTION     0.19     2.20     9.08     0  01:55        1.60
  YS02001754           JUNCTION     0.25     2.20     8.81     0  01:55        1.83
  YS02001757           JUNCTION     0.42     2.16     8.42     0  02:09        2.13
  YS02001759           JUNCTION     0.35     2.18     8.54     0  02:09        2.13
  YS02001762           JUNCTION     0.34     2.15     8.55     0  02:08        2.09
  YS02001765           JUNCTION     0.32     2.10     8.55     0  02:08        2.02
  YS02001767           JUNCTION     0.31     2.03     8.52     0  01:55        1.98
  YS02001770           JUNCTION     0.32     1.95     8.44     0  01:55        1.95
  YS02001774           JUNCTION     0.39     2.02     8.44     0  01:55        2.01
  YS02001779           JUNCTION     0.23     1.68     8.37     0  01:53        1.68
  YS02001783           JUNCTION     0.24     1.29     7.43     0  02:09        1.26
  YS02001784           JUNCTION     0.25     1.18     7.24     0  02:09        1.14
  YS02001786           JUNCTION     0.21     0.92     6.95     0  02:09        0.89
  YS02001788           JUNCTION     0.15     0.63     6.61     0  02:01        0.63
  YS02001790           JUNCTION     0.18     0.73     6.38     0  02:02        0.72
  YS02001791           JUNCTION     0.11     0.44     5.91     0  01:59        0.43
  YS02001793           JUNCTION     0.06     0.32     5.15     0  02:00        0.30
  YS02001882           JUNCTION     0.31     1.83     8.54     0  02:08        1.71
  YS02001884           JUNCTION     0.41     1.89     8.51     0  02:08        1.81
  YS02001887           JUNCTION     0.48     1.91     8.44     0  02:01        1.89
  YS02001890           JUNCTION     0.51     1.81     8.32     0  01:53        1.81
  YS02001895           JUNCTION     0.28     1.58     8.32     0  02:09        1.57
  YS02001898           JUNCTION     0.29     1.59     8.32     0  02:08        1.59
  YS02001901           JUNCTION     0.41     1.70     8.31     0  02:08        1.70
  YS02001904           JUNCTION     0.39     1.66     8.29     0  02:08        1.66
  YS02001907           JUNCTION     0.71     1.96     8.25     0  01:53        1.96
  YS02001910           JUNCTION     0.51     2.01     8.52     0  02:00        2.01
  YS02001915           JUNCTION     0.32     2.00     8.72     0  01:59        2.00
  YS02001918           JUNCTION     0.18     1.81     8.88     0  01:54        1.73
  YS02001920           JUNCTION     0.26     2.14     9.14     0  01:54        1.82
  YS02001923           JUNCTION     0.14     2.03     9.29     0  01:54        1.60
  YS02001926           JUNCTION     0.17     1.90     9.35     0  01:54        1.45
  YS02001929           JUNCTION     0.10     1.78     9.47     0  01:54        1.24
  YS02006553           JUNCTION     0.71     2.03     8.32     0  02:09        1.99
  YS02006556           JUNCTION     0.69     2.07     8.38     0  02:09        2.00
  YS02006558           JUNCTION     0.73     2.11     8.38     0  02:01        2.06
  YS02006561           JUNCTION     0.15     1.01     7.67     0  02:09        0.94
  YS02163301           JUNCTION     0.50     2.00     8.52     0  01:50        1.93
  YS02163601           JUNCTION     0.59     2.08     8.48     0  02:08        2.04
  YS02164001           JUNCTION     0.53     2.07     8.53     0  02:08        1.95
  CC-1                 OUTFALL      0.00     0.00     0.00     0  00:00        0.00
  CC-2                 OUTFALL      0.00     0.00     0.00     0  00:00        0.00
  JK-1                 OUTFALL      0.00     0.00     0.00     0  00:00        0.00
  JK-2                 OUTFALL      0.00     0.00     0.00     0  00:00        0.00
  WSC                  OUTFALL      0.19     0.30     0.97     0  03:15        0.30
  CC-storage           STORAGE      1.02     1.84     7.34     0  02:33        1.84
  JK-storage           STORAGE      3.25     4.24     5.04     0  02:20        4.20
  
  
  *******************
  Node Inflow Summary
  *******************
  
  -------------------------------------------------------------------------------------------------
                                  Maximum  Maximum                  Lateral       Total        Flow
                                  Lateral    Total  Time of Max      Inflow      Inflow     Balance
                                   Inflow   Inflow   Occurrence      Volume      Volume       Error
  Node                 Type           LPS      LPS  days hr:min    10^6 ltr    10^6 ltr     Percent
  -------------------------------------------------------------------------------------------------
  WS02003060           JUNCTION     16.53   551.92     0  03:11       0.476        5.65       0.084
  WS02003066           JUNCTION      0.00   534.85     0  03:12           0        5.17       0.045
  WS02003067           JUNCTION      0.00   534.84     0  03:12           0        5.18       0.107
  WS02003069           JUNCTION      0.32   551.87     0  03:12     0.00922        5.65       0.136
  WS02003072           JUNCTION      0.00   551.76     0  03:13           0        5.64       0.205
  WS02003073           JUNCTION      1.82   553.50     0  03:14      0.0524        5.68       0.171
  WS02004401           JUNCTION      0.00   539.84     0  03:09           0        5.31       0.242
  WS02004402           JUNCTION      0.00   540.40     0  03:08           0         5.3       0.241
  WS02004403           JUNCTION      0.00   541.43     0  02:22           0        5.29       0.228
  WS02004404           JUNCTION      0.16   554.35     0  02:19     0.00467        5.28       0.192
  WS02004405           JUNCTION      0.04   606.79     0  02:20      0.0011        5.27       0.195
  WS02004406           JUNCTION      0.00   544.29     0  03:07           0        5.26       0.457
  WS02004407           JUNCTION      0.00   539.01     0  02:21           0        5.23       0.054
  WS02004409           JUNCTION      0.00   537.99     0  02:21           0        5.23       0.119
  WS02004410           JUNCTION      0.00   536.49     0  02:22           0        5.23       0.154
  WS02004411           JUNCTION      0.00   536.19     0  02:22           0        5.22       0.175
  WS02004412           JUNCTION      0.00   535.58     0  02:22           0        5.21       0.212
  WS02004413           JUNCTION      0.00   535.14     0  02:22           0         5.2       0.349
  WS02006109           JUNCTION      1.23   575.67     0  03:30      0.0354        5.37       0.207
  WS02006110           JUNCTION      0.00   578.36     0  03:30           0        5.36       0.161
  WS02006111           JUNCTION      0.00   561.52     0  03:06           0        5.35       0.029
  WS02006112           JUNCTION      0.00   543.53     0  03:06           0        5.35       0.381
  WS02006113           JUNCTION      0.00   575.61     0  03:30           0        5.35       0.057
  WS02006115           JUNCTION      0.00   553.15     0  02:59           0        5.33       0.178
  WS02006116           JUNCTION      0.00   540.76     0  02:13           0        5.32       0.096
  WS02006228           JUNCTION      0.00   566.86     0  03:30           0        5.34       0.090
  WS02006229           JUNCTION      0.00   560.01     0  03:30           0        5.35       0.108
  WS02006230           JUNCTION     10.28   591.90     0  02:20       0.296        5.35       0.063
  WS02006231           JUNCTION      0.00   573.81     0  02:31           0        5.05       0.021
  WS02006232           JUNCTION      0.00   573.03     0  02:31           0        5.06       0.222
  WS02006234           JUNCTION      0.00   568.73     0  02:31           0        5.06      -0.179
  WS02006235           JUNCTION      0.00   563.43     0  02:31           0        5.12       0.141
  WS02006238           JUNCTION      0.00   430.51     0  01:50           0        4.16      -0.104
  WS02006239           JUNCTION      0.00   429.55     0  01:50           0        4.13      -0.067
  WS02006240           JUNCTION      0.00   429.94     0  01:50           0         4.1      -0.041
  WS02006242           JUNCTION      0.00   430.05     0  01:50           0        4.08      -0.041
  WS02006243           JUNCTION      0.00   429.65     0  01:50           0        4.07       0.111
  WS02006245           JUNCTION      0.00   428.93     0  01:50           0        4.08       0.292
  WS02006247           JUNCTION      0.00   428.54     0  01:50           0        4.08       0.021
  WS02006248           JUNCTION      0.00   428.31     0  01:50           0        4.08       0.074
  WS02006249           JUNCTION      0.00   459.02     0  00:00           0        4.34       0.245
  WS02006251           JUNCTION      0.08   412.56     0  03:24     0.00222        4.33      -0.033
  WS02006252           JUNCTION      0.00   400.00     0  00:00           0        4.33      -0.019
  WS02006256           JUNCTION      0.00   300.00     0  00:00           0        1.45      -0.908
  WSF200               JUNCTION      0.00   534.87     0  03:12           0        5.17       0.026
  YS02001580           JUNCTION      0.00   111.76     0  01:50           0     0.00429      -0.969
  YS02001583           JUNCTION      0.00   154.30     0  01:50           0      0.0155      -3.536
  YS02001586           JUNCTION   1201.28  1201.30     0  02:03        2.41        2.42       0.052
  YS02001590           JUNCTION      0.00   319.48     0  02:08           0        1.53      -0.032
  YS02001593           JUNCTION      0.00   319.24     0  02:08           0        1.53      -0.001
  YS02001596           JUNCTION      0.00   318.44     0  02:27           0        1.53      -0.013
  YS02001600           JUNCTION      0.00   318.29     0  02:27           0        1.53       0.008
  YS02001601           JUNCTION   2158.58  2476.00     0  02:02        3.26        4.78       0.017
  YS02001602           JUNCTION      0.00   516.01     0  01:49           0        2.46       0.018
  YS02001605           JUNCTION      0.00   515.58     0  01:49           0         2.3       0.025
  YS02001607           JUNCTION      0.00   514.90     0  01:49           0         2.3       0.080
  YS02001610           JUNCTION      0.00   954.70     0  02:08           0         2.9       0.074
  YS02001613           JUNCTION      0.00   617.97     0  02:08           0        2.24       0.063
  YS02001616           JUNCTION      0.00   617.94     0  02:08           0        2.24       0.017
  YS02001619           JUNCTION   2154.00  2154.00     0  02:03        3.87         5.5      -0.003
  YS02001622           JUNCTION      0.00  1053.98     0  02:08           0        4.72      -0.003
  YS02001625           JUNCTION      0.00  1504.93     0  02:07           0        5.13       0.181
  YS02001629           JUNCTION      0.00   922.54     0  01:50           0        3.75       0.007
  YS02001633           JUNCTION   1626.21  1626.21     0  02:02        2.39        5.53       0.062
  YS02001641           JUNCTION      0.00  1352.67     0  01:52           0        4.92       0.059
  YS02001644           JUNCTION   1457.40  2711.55     0  02:02        2.08        7.11       0.043
  YS02001647           JUNCTION      0.00  1743.25     0  01:53           0        5.68       0.008
  YS02001649           JUNCTION      0.00  1962.12     0  01:51           0        7.48      -0.003
  YS02001652           JUNCTION      0.00  1435.39     0  02:01           0        1.92      -0.065
  YS02001655           JUNCTION      0.15  1434.49     0  02:01     0.00443        1.92       0.015
  YS02001658           JUNCTION      0.00  1434.20     0  02:01           0        1.91      -0.040
  YS02001661           JUNCTION      0.00  1433.94     0  02:01           0        1.91       0.018
  YS02001664           JUNCTION   1426.86  1426.86     0  02:02        1.91        1.91      -0.010
  YS02001745           JUNCTION    906.33   906.33     0  02:01        1.14        1.14       0.138
  YS02001748           JUNCTION      0.04   916.53     0  02:01      0.0013        1.15      -0.251
  YS02001751           JUNCTION      0.01   917.15     0  02:01    0.000317        1.15       0.074
  YS02001754           JUNCTION      0.26   918.12     0  02:01     0.00749        1.17      -0.155
  YS02001757           JUNCTION      0.00  3315.92     0  01:59           0        11.7       0.012
  YS02001759           JUNCTION   1260.92  1425.33     0  02:00        1.58        3.22      -0.011
  YS02001762           JUNCTION      0.00   715.15     0  01:56           0        1.63       0.003
  YS02001765           JUNCTION      0.00   715.01     0  01:56           0        1.63       0.022
  YS02001767           JUNCTION      0.54   716.16     0  01:55      0.0154        1.63       0.010
  YS02001770           JUNCTION   1776.18  1776.18     0  02:02         2.4        2.45      -0.010
  YS02001774           JUNCTION      0.00   851.82     0  02:05           0        0.65       0.161
  YS02001779           JUNCTION      0.01   851.65     0  02:05    0.000144       0.605      -0.115
  YS02001783           JUNCTION      0.00  1183.97     0  02:01           0        4.55       0.006
  YS02001784           JUNCTION      1.06  1184.82     0  02:01      0.0305        4.58       0.011
  YS02001786           JUNCTION      0.06  1185.92     0  02:01     0.00162        4.58       0.016
  YS02001788           JUNCTION      0.07  1188.09     0  02:01     0.00204        4.59       0.006
  YS02001790           JUNCTION      0.15  1195.80     0  02:00     0.00446        4.59       0.018
  YS02001791           JUNCTION      0.00  1307.71     0  02:02           0        4.59      -0.031
  YS02001793           JUNCTION      0.00  1270.65     0  02:00           0        4.59       0.004
  YS02001882           JUNCTION      0.00    49.38     0  01:51           0       0.013       5.850
  YS02001884           JUNCTION      0.00    71.64     0  01:51           0      0.0495       5.798
  YS02001887           JUNCTION   1371.00  1375.80     0  02:01        1.64        1.68       0.265
  YS02001890           JUNCTION      0.00  1375.82     0  02:01           0        1.64       0.315
  YS02001895           JUNCTION      0.00   530.21     0  02:09           0        1.28       0.137
  YS02001898           JUNCTION      0.00   522.05     0  02:09           0        1.27       0.004
  YS02001901           JUNCTION      0.00   517.78     0  02:04           0        1.28       0.271
  YS02001904           JUNCTION      0.00   518.42     0  02:09           0        1.28       0.230
  YS02001907           JUNCTION      0.00  3157.50     0  02:02           0        4.98       0.360
  YS02001910           JUNCTION      0.00  1993.18     0  02:04           0         3.5       0.207
  YS02001915           JUNCTION   1570.28  2330.95     0  02:02        2.29        3.61       0.042
  YS02001918           JUNCTION      0.00   762.03     0  02:02           0        1.35      -0.001
  YS02001920           JUNCTION      2.87   762.25     0  02:03      0.0827        1.33       0.098
  YS02001923           JUNCTION      0.04   759.32     0  02:03     0.00109        1.24      -0.025
  YS02001926           JUNCTION      0.05   759.09     0  02:02      0.0015        1.22      -0.072
  YS02001929           JUNCTION    758.68   758.68     0  02:03         1.2        1.21      -0.041
  YS02006553           JUNCTION      0.00   801.45     0  02:23           0        2.58       0.461
  YS02006556           JUNCTION      0.00   801.56     0  02:23           0        2.59       0.333
  YS02006558           JUNCTION   1820.67  1820.67     0  02:02        2.41        4.78       0.079
  YS02006561           JUNCTION      0.00  1184.59     0  02:01           0        4.55      -0.002
  YS02163301           JUNCTION      0.00   919.93     0  01:52           0        3.75       0.036
  YS02163601           JUNCTION      0.11  1350.62     0  01:52     0.00317        4.91       0.100
  YS02164001           JUNCTION      0.00  1351.23     0  01:52           0        4.91       0.045
  CC-1                 OUTFALL       0.00   683.00     0  00:00           0        4.03       0.000
  CC-2                 OUTFALL       0.00   683.00     0  00:00           0         3.4       0.000
  JK-1                 OUTFALL       0.00  1000.00     0  00:00           0        2.83       0.000
  JK-2                 OUTFALL       0.00  1000.00     0  00:00           0       0.336       0.000
  WSC                  OUTFALL       0.00   553.27     0  03:15           0        5.67       0.000
  CC-storage           STORAGE       0.00  3316.10     0  02:00           0          14      -0.063
  JK-storage           STORAGE       0.00  1255.43     0  02:00           0        4.74      -0.052
  
  
  **********************
  Node Surcharge Summary
  **********************
  
  Surcharging occurs when water rises above the top of the highest conduit.
  ---------------------------------------------------------------------
                                               Max. Height   Min. Depth
                                   Hours       Above Crown    Below Rim
  Node                 Type      Surcharged         Meters       Meters
  ---------------------------------------------------------------------
  WS02004404           JUNCTION        0.02          0.024        2.756
  WS02006109           JUNCTION        2.27          0.412        1.408
  WS02006110           JUNCTION        0.75          0.339        1.511
  WS02006112           JUNCTION        1.04          0.081        1.599
  WS02006228           JUNCTION        2.26          0.547        1.653
  WS02006229           JUNCTION        2.27          0.649        1.801
  WS02006230           JUNCTION        0.77          0.633        0.937
  WS02006231           JUNCTION        0.97          0.702        0.828
  WS02006232           JUNCTION        2.31          0.998        0.482
  WS02006234           JUNCTION        1.39          1.240        0.000
  WS02006235           JUNCTION        2.22          1.290        0.000
  WS02006238           JUNCTION        2.28          1.317        0.113
  WS02006239           JUNCTION        2.25          1.229        0.061
  WS02006240           JUNCTION        2.28          1.089        0.301
  WS02006242           JUNCTION        2.29          0.820        0.000
  WS02006243           JUNCTION        2.27          0.750        0.020
  WS02006245           JUNCTION        2.27          0.685        0.165
  WS02006247           JUNCTION        2.27          0.598        0.162
  WS02006248           JUNCTION        2.26          0.380        0.000
  WS02006249           JUNCTION        2.26          0.390        0.000
  WS02006251           JUNCTION        1.09          0.905        0.275
  WS02006252           JUNCTION        2.42          1.100        0.000
  WS02006256           JUNCTION        5.36          2.050        0.000
  YS02001580           JUNCTION        0.81          0.450        0.000
  YS02001583           JUNCTION        0.82          0.379        0.121
  YS02001586           JUNCTION        0.95          0.510        0.000
  YS02001590           JUNCTION        1.03          0.750        0.000
  YS02001593           JUNCTION        1.03          0.774        0.066
  YS02001596           JUNCTION        1.15          0.932        0.138
  YS02001600           JUNCTION        1.31          1.190        0.000
  YS02001601           JUNCTION        1.58          1.440        0.000
  YS02001602           JUNCTION        1.50          1.270        0.000
  YS02001605           JUNCTION        1.46          1.180        0.000
  YS02001607           JUNCTION        1.03          0.667        0.013
  YS02001610           JUNCTION        1.06          0.680        0.000
  YS02001613           JUNCTION        1.03          0.677        0.023
  YS02001616           JUNCTION        0.98          0.610        0.000
  YS02001619           JUNCTION        0.97          0.610        0.000
  YS02001622           JUNCTION        0.97          0.591        0.029
  YS02001625           JUNCTION        1.16          0.780        0.000
  YS02001629           JUNCTION        0.92          0.470        0.000
  YS02001633           JUNCTION        1.20          1.055        0.005
  YS02001641           JUNCTION        1.15          1.042        0.058
  YS02001644           JUNCTION        1.13          0.920        0.000
  YS02001647           JUNCTION        0.91          0.814        0.086
  YS02001649           JUNCTION        1.06          1.050        0.000
  YS02001652           JUNCTION        0.85          0.919        0.211
  YS02001655           JUNCTION        0.67          0.821        0.379
  YS02001658           JUNCTION        0.38          0.757        0.543
  YS02001661           JUNCTION        0.16          0.425        0.965
  YS02001664           JUNCTION        0.01          0.093        1.217
  YS02001745           JUNCTION        0.03          0.077        1.273
  YS02001748           JUNCTION        0.32          1.190        0.000
  YS02001751           JUNCTION        0.52          1.200        0.000
  YS02001754           JUNCTION        0.75          1.150        0.000
  YS02001757           JUNCTION        1.13          1.160        0.050
  YS02001759           JUNCTION        1.04          1.179        0.031
  YS02001762           JUNCTION        1.00          1.150        0.000
  YS02001765           JUNCTION        0.96          1.100        0.000
  YS02001767           JUNCTION        0.92          1.030        0.000
  YS02001770           JUNCTION        0.89          0.920        0.000
  YS02001774           JUNCTION        0.98          1.017        0.033
  YS02001779           JUNCTION        0.75          0.680        0.000
  YS02001783           JUNCTION        0.68          0.491        1.109
  YS02001784           JUNCTION        0.65          0.377        1.113
  YS02001786           JUNCTION        0.54          0.125        1.305
  YS02001882           JUNCTION        0.62          0.827        0.003
  YS02001884           JUNCTION        0.63          0.828        0.042
  YS02001887           JUNCTION        0.66          0.855        0.095
  YS02001890           JUNCTION        0.68          0.760        0.000
  YS02001895           JUNCTION        0.61          0.575        0.175
  YS02001898           JUNCTION        0.60          0.556        0.184
  YS02001901           JUNCTION        0.65          0.703        0.167
  YS02001904           JUNCTION        0.64          0.658        0.192
  YS02001907           JUNCTION        0.90          0.950        0.000
  YS02001910           JUNCTION        0.71          1.014        0.086
  YS02001915           JUNCTION        0.62          1.000        0.000
  YS02001918           JUNCTION        0.53          0.810        0.000
  YS02001920           JUNCTION        0.54          1.136        0.004
  YS02001923           JUNCTION        0.24          0.820        0.000
  YS02001926           JUNCTION        0.26          0.900        0.000
  YS02001929           JUNCTION        0.14          0.780        0.000
  YS02006553           JUNCTION        0.92          1.033        0.157
  YS02006556           JUNCTION        0.80          1.030        0.320
  YS02006558           JUNCTION        0.79          1.010        0.390
  YS02006561           JUNCTION        0.49          0.207        0.943
  YS02163301           JUNCTION        1.17          1.002        0.028
  YS02163601           JUNCTION        1.24          1.080        0.000
  YS02164001           JUNCTION        1.15          1.074        0.026
  
  
  *********************
  Node Flooding Summary
  *********************
  
  Flooding refers to all water that overflows a node, whether it ponds or not.
  --------------------------------------------------------------------------
                                                             Total   Maximum
                                 Maximum   Time of Max       Flood    Ponded
                        Hours       Rate    Occurrence      Volume     Depth
  Node                 Flooded       LPS   days hr:min    10^6 ltr    Meters
  --------------------------------------------------------------------------
  WS02006234              0.01    108.60      0  02:25       0.000     0.000
  WS02006235              0.01     21.42      0  02:25       0.000     0.000
  WS02006242              0.01     25.49      0  02:25       0.000     0.000
  WS02006248              0.02     20.20      0  02:20       0.001     0.000
  WS02006249              1.04     90.66      0  01:50       0.241     0.000
  WS02006252              0.01    245.63      0  00:00       0.000     0.000
  WS02006256              1.34    293.19      0  00:00       0.466     0.000
  YS02001580              0.01     99.38      0  01:50       0.000     0.000
  YS02001586              0.67    883.84      0  02:03       0.879     0.000
  YS02001590              0.01      0.15      0  02:09       0.000     0.000
  YS02001600              0.01      0.25      0  02:27       0.000     0.000
  YS02001601              0.86   2077.96      0  02:02       2.324     0.000
  YS02001602              0.77     62.41      0  02:27       0.158     0.000
  YS02001605              0.01      2.29      0  01:50       0.000     0.000
  YS02001610              0.68    954.30      0  02:08       1.263     0.000
  YS02001616              0.07      8.49      0  01:50       0.000     0.000
  YS02001619              0.17    490.53      0  02:03       0.173     0.000
  YS02001625              0.66   1504.77      0  02:07       1.984     0.000
  YS02001629              0.27    445.76      0  02:02       0.210     0.000
  YS02001644              0.34   2710.77      0  02:02       1.533     0.000
  YS02001649              0.01      6.71      0  02:09       0.000     0.000
  YS02001748              0.01    288.12      0  01:55       0.000     0.000
  YS02001751              0.01     87.76      0  01:55       0.000     0.000
  YS02001754              0.01     26.00      0  01:55       0.000     0.000
  YS02001762              0.01     26.24      0  02:08       0.000     0.000
  YS02001765              0.01     28.51      0  02:08       0.000     0.000
  YS02001767              0.01     18.44      0  02:08       0.000     0.000
  YS02001770              0.13    795.40      0  02:02       0.201     0.000
  YS02001779              0.31    851.41      0  02:05       0.587     0.000
  YS02001890              0.28    860.79      0  02:01       0.355     0.000
  YS02001907              0.47   3156.35      0  02:02       2.580     0.000
  YS02001915              0.10    338.48      0  02:02       0.071     0.000
  YS02001918              0.01    106.80      0  01:54       0.001     0.000
  YS02001923              0.01     86.30      0  01:54       0.000     0.000
  YS02001926              0.01     44.98      0  01:54       0.000     0.000
  YS02001929              0.01    242.95      0  01:54       0.001     0.000
  YS02163601              0.01     36.56      0  02:09       0.000     0.000
  
  
  **********************
  Storage Volume Summary
  **********************
  
  ------------------------------------------------------------------------------------------------
                         Average    Avg   Evap  Exfil     Maximum    Max    Time of Max    Maximum
                          Volume   Pcnt   Pcnt   Pcnt      Volume   Pcnt     Occurrence    Outflow
  Storage Unit           1000 m³   Full   Loss   Loss     1000 m³   Full    days hr:min        LPS
  ------------------------------------------------------------------------------------------------
  CC-storage               2.841   44.3    0.0    0.0       5.123   79.9       0  02:33    1783.53
  JK-storage               0.163   56.0    0.0    0.0       0.213   73.1       0  02:20    2300.00
  
  
  ***********************
  Outfall Loading Summary
  ***********************
  
  -----------------------------------------------------------
                         Flow       Avg       Max       Total
                         Freq      Flow      Flow      Volume
  Outfall Node           Pcnt       LPS       LPS    10^6 ltr
  -----------------------------------------------------------
  CC-1                  22.55    683.00    683.00       4.028
  CC-2                  19.03    683.00    683.00       3.401
  JK-1                  12.06   1000.00   1000.00       2.828
  JK-2                   1.18   1000.00   1000.00       0.336
  WSC                   99.96    268.27    553.27       5.674
  -----------------------------------------------------------
  System                30.96   3634.27   3366.23      16.268
  
  
  ********************
  Link Flow Summary
  ********************
  
  -----------------------------------------------------------------------------
                                 Maximum  Time of Max   Maximum    Max/    Max/
                                  |Flow|   Occurrence   |Veloc|    Full    Full
  Link                 Type          LPS  days hr:min     m/sec    Flow   Depth
  -----------------------------------------------------------------------------
  1                    CONDUIT    553.27     0  03:15      2.82    0.19    0.30
  WS02003060WS02003069 CONDUIT    551.55     0  03:12      1.64    0.22    0.34
  WS02003066WSF200     CONDUIT    534.87     0  03:12      2.85    0.09    0.22
  WS02003067WS02003066 CONDUIT    534.85     0  03:12      1.20    0.17    0.42
  WS02003069WS02003072 CONDUIT    551.76     0  03:13      1.37    0.27    0.39
  WS02003072WS02003073 CONDUIT    551.68     0  03:14      1.43    1.19    0.37
  WS02004401WS02004402 CONDUIT    540.40     0  03:08      0.98    0.65    0.89
  WS02004402WS02004403 CONDUIT    541.43     0  02:22      0.97    0.78    0.91
  WS02004403WS02004404 CONDUIT    554.18     0  02:19      0.92    0.40    0.96
  WS02004404WS02004405 CONDUIT    606.75     0  02:20      1.08    5.94    0.98
  WS02004405WS02004406 CONDUIT    544.29     0  03:07      0.99    1.07    0.96
  WS02004406WS02004407 CONDUIT    539.01     0  02:21      1.04    0.24    0.63
  WS02004407WS02004409 CONDUIT    537.99     0  02:21      1.56    0.19    0.48
  WS02004409WS02004410 CONDUIT    536.49     0  02:22      1.05    0.69    0.67
  WS02004410WS02004411 CONDUIT    536.19     0  02:22      0.98    0.73    0.68
  WS02004411WS02004412 CONDUIT    535.58     0  02:22      0.92    0.76    0.69
  WS02004412WS02004413 CONDUIT    535.14     0  02:22      0.82    0.36    0.78
  WS02004413WS02003067 CONDUIT    534.84     0  03:12      1.11    0.23    0.59
  WS02006109WS02006110 CONDUIT    578.36     0  03:30      1.15    1.11    1.00
  WS02006110WS02006113 CONDUIT    575.61     0  03:30      1.39    0.52    0.79
  WS02006111WS02006112 CONDUIT    543.53     0  03:06      1.81    0.26    0.67
  WS02006112WS02006115 CONDUIT    553.15     0  02:59      0.87    0.33    0.88
  WS02006113WS02006111 CONDUIT    561.52     0  03:06      2.47    0.67    0.46
  WS02006115WS02006116 CONDUIT    540.76     0  02:13      1.05    0.69    0.78
  WS02006116WS02004401 CONDUIT    539.84     0  03:09      0.98    0.74    0.86
  WS02006228WS02006109 CONDUIT    574.44     0  03:30      1.14    2.51    1.00
  WS02006229WS02006228 CONDUIT    566.86     0  03:30      1.14    1.88    1.00
  WS02006230WS02006229 CONDUIT    560.01     0  03:30      1.46   12.46    1.00
  WS02006231WS02006230 CONDUIT    581.62     0  02:20      1.57    8.82    1.00
  WS02006232WS02006231 CONDUIT    573.81     0  02:31      1.51    1.20    1.00
  WS02006234WS02006232 CONDUIT    573.03     0  02:31      1.49    1.16    1.00
  WS02006235WS02006234 CONDUIT    568.73     0  02:31      1.48    6.00    1.00
  WS02006238WS02006235 CONDUIT    430.96     0  01:50      1.56    0.96    1.00
  WS02006239WS02006238 CONDUIT    430.51     0  01:50      1.12    1.38    1.00
  WS02006240WS02006239 CONDUIT    429.55     0  01:50      1.24    1.35    1.00
  WS02006242WS02006240 CONDUIT    429.94     0  01:50      1.13    1.71    1.00
  WS02006243WS02006242 CONDUIT    430.05     0  01:50      1.40    0.92    1.00
  WS02006245WS02006243 CONDUIT    429.65     0  01:50      1.45    1.27    1.00
  WS02006247WS02006245 CONDUIT    428.93     0  01:50      1.43    3.40    1.00
  WS02006248WS02006247 CONDUIT    428.54     0  01:50      1.44    0.93    1.00
  WS02006249WS02006248 CONDUIT    428.31     0  01:50      1.36    2.35    1.00
  WS02006251WS02006249 CONDUIT    459.02     0  00:00      1.99    1.32    1.00
  WS02006252WS02006251 CONDUIT    412.48     0  03:24     24.61    1.51    1.00
  WS02006256WS02006235 CONDUIT    289.21     0  01:43      4.23    3.06    1.00
  WSF200WS02003060     CONDUIT    535.39     0  03:11      2.07    0.12    0.28
  YS02001580YS02001583 CONDUIT    111.76     0  01:50      0.62    0.43    1.00
  YS02001583YS02001586 CONDUIT    154.30     0  01:50      0.64    0.23    1.00
  YS02001586YS02001590 CONDUIT    319.48     0  02:08      1.25    0.56    1.00
  YS02001590YS02001593 CONDUIT    319.24     0  02:08      1.13    2.00    1.00
  YS02001593YS02001596 CONDUIT    318.44     0  02:27      1.74    0.50    1.00
  YS02001596YS02001600 CONDUIT    318.29     0  02:27      1.26    0.62    1.00
  YS02001600YS02001601 CONDUIT    319.02     0  02:27      1.13    0.55    1.00
  YS02001601YS02001602 CONDUIT    516.01     0  01:49      1.82    1.86    1.00
  YS02001602YS02001605 CONDUIT    515.58     0  01:49      1.82   10.91    1.00
  YS02001605YS02001607 CONDUIT    514.90     0  01:49      1.82    2.82    1.00
  YS02001607YS02001610 CONDUIT    517.72     0  01:49      0.66    0.49    1.00
  YS02001610YS02001613 CONDUIT    618.40     0  02:08      0.79    0.71    1.00
  YS02001613YS02001616 CONDUIT    617.97     0  02:08      0.79    0.53    1.00
  YS02001616YS02001619 CONDUIT    617.94     0  02:08      0.79    1.07    1.00
  YS02001619YS02001622 CONDUIT   1053.98     0  02:08      1.34    1.55    1.00
  YS02001622YS02001625 CONDUIT   1053.69     0  02:07      1.34    0.56    1.00
  YS02001625YS02001629 CONDUIT    922.54     0  01:50      1.18    0.44    1.00
  YS02001629YS02163301 CONDUIT    919.93     0  01:52      1.17    1.13    1.00
  YS02001633YS02163601 CONDUIT   1350.51     0  01:52      1.72    1.42    1.00
  YS02001641YS02001644 CONDUIT   1353.63     0  01:52      1.72    4.38    1.00
  YS02001644YS02001647 CONDUIT   1743.25     0  01:53      2.24    1.02    1.00
  YS02001647YS02001649 CONDUIT   1749.70     0  01:53      2.31    0.92    1.00
  YS02001649YS02001757 CONDUIT   1912.18     0  01:53      2.46    1.16    1.00
  YS02001652YS02001649 CONDUIT   1435.23     0  02:01      1.83    0.71    1.00
  YS02001655YS02001652 CONDUIT   1435.39     0  02:01      1.83    0.70    1.00
  YS02001658YS02001655 CONDUIT   1434.34     0  02:01      1.89    0.61    1.00
  YS02001661YS02001658 CONDUIT   1434.20     0  02:01      2.28    0.56    1.00
  YS02001664YS02001661 CONDUIT   1433.94     0  02:01      2.25    0.45    1.00
  YS02001745YS02001748 CONDUIT    916.48     0  02:01      2.15    0.35    1.00
  YS02001748YS02001751 CONDUIT    917.14     0  02:01      1.68    0.46    1.00
  YS02001751YS02001754 CONDUIT    917.86     0  02:01      1.46    0.44    1.00
  YS02001754YS02001757 CONDUIT    919.71     0  02:01      1.17    0.37    1.00
  YS02001757CaochengTiaoxuchi CONDUIT   3316.10     0  02:00      4.22    1.44    1.00
  YS02001759YS02001757 CONDUIT   1425.32     0  02:00      1.81    1.01    1.00
  YS02001762YS02001759 CONDUIT    714.91     0  01:55      0.91    0.82    1.00
  YS02001765YS02001762 CONDUIT    715.15     0  01:56      0.91    0.67    1.00
  YS02001767YS02001765 CONDUIT    715.01     0  01:56      0.91    0.90    1.00
  YS02001770YS02001767 CONDUIT    715.62     0  01:55      0.91    2.83    1.00
  YS02001774YS02001770 CONDUIT    851.82     0  02:05      1.08    0.54    1.00
  YS02001779YS02001774 CONDUIT    851.64     0  02:05      1.08    0.43    1.00
  YS02001783YS02001784 CONDUIT   1183.76     0  02:01      2.36    1.63    1.00
  YS02001784YS02001785 CONDUIT   1185.86     0  02:01      2.36    2.76    1.00
  YS02001786YS02001788 CONDUIT   1188.02     0  02:01      2.53    2.29    0.89
  YS02001788YS02001790 CONDUIT   1195.65     0  02:00      2.75    0.88    0.85
  YS02001790YS02001791 CONDUIT   1307.71     0  02:02      3.45    1.42    0.71
  YS02001791YS02001793 CONDUIT   1270.65     0  02:00      6.43    0.55    0.46
  YS02001793JiankangQianchi CONDUIT   1255.43     0  02:00      2.46    0.10    0.66
  YS02001882YS02001884 CONDUIT     49.38     0  01:51      0.14    0.06    1.00
  YS02001884YS02001887 CONDUIT     71.64     0  01:51      0.10    0.10    1.00
  YS02001887YS02001890 CONDUIT   1375.82     0  02:01      1.75    2.35    1.00
  YS02001890YS02001895 CONDUIT    530.21     0  02:09      0.68    0.25    1.00
  YS02001895YS02001898 CONDUIT    522.05     0  02:09      0.66    0.91    1.00
  YS02001898YS02001901 CONDUIT    517.78     0  02:04      0.66    0.33    1.00
  YS02001901YS02001904 CONDUIT    518.42     0  02:09      0.66    0.80    1.00
  YS02001904YS02001907 CONDUIT    521.14     0  02:09      0.66    0.18    1.00
  YS02001907YS02006553 CONDUIT    801.45     0  02:23      0.89    0.94    1.00
  YS02001910YS02001907 CONDUIT   1993.01     0  02:02      2.54    1.12    1.00
  YS02001915YS02001910 CONDUIT   1993.18     0  02:04      2.54    0.99    1.00
  YS02001918YS02001915 CONDUIT    761.75     0  02:02      0.97    0.42    1.00
  YS02001920YS02001918 CONDUIT    762.03     0  02:02      0.97    0.74    1.00
  YS02001923YS02001920 CONDUIT    759.38     0  02:03      0.97    0.34    1.00
  YS02001926YS02001923 CONDUIT    759.29     0  02:03      0.97    1.08    1.00
  YS02001929YS02001926 CONDUIT    759.04     0  02:02      1.12    0.36    1.00
  YS02006553YS02006556 CONDUIT    801.56     0  02:23      1.02    0.69    1.00
  YS02006556YS02006558 CONDUIT    802.89     0  02:23      1.02    0.63    1.00
  YS02006558YS02006561 CONDUIT   1184.59     0  02:01      4.19    2.62    1.00
  YS02006561YS02001783 CONDUIT   1183.97     0  02:01      2.36    0.61    1.00
  YS02163301YS02001633 CONDUIT    920.27     0  01:52      1.17    0.87    1.00
  YS02163601YS02164001 CONDUIT   1351.23     0  01:52      1.72    1.20    1.00
  YS02164001YS02001641 CONDUIT   1352.67     0  01:52      1.72    1.85    1.00
  CC-R1                PUMP       683.00     0  00:00              1.00
  CC-R2                PUMP       683.00     0  00:00              1.00
  CC-S1                PUMP       200.00     0  00:00              1.00
  CC-S2                PUMP       200.00     0  00:00              1.00
  JK-R1                PUMP      1000.00     0  00:00              1.00
  JK-R2                PUMP      1000.00     0  00:00              1.00
  JK-S                 PUMP       300.00     0  00:00              1.00
  
  
  ***************************
  Flow Classification Summary
  ***************************
  
  -------------------------------------------------------------------------------------
                      Adjusted    ---------- Fraction of Time in Flow Class ---------- 
                       /Actual         Up    Down  Sub   Sup   Up    Down  Norm  Inlet 
  Conduit               Length    Dry  Dry   Dry   Crit  Crit  Crit  Crit  Ltd   Ctrl  
  -------------------------------------------------------------------------------------
  1                       1.00   0.00  0.00  0.00  0.00  1.00  0.00  0.00  0.53  0.00
  WS02003060WS02003069    1.00   0.00  0.00  0.00  0.98  0.02  0.00  0.00  0.67  0.00
  WS02003066WSF200        1.00   0.13  0.00  0.00  0.00  0.87  0.00  0.00  0.75  0.00
  WS02003067WS02003066    1.00   0.10  0.02  0.00  0.88  0.00  0.00  0.00  0.00  0.00
  WS02003069WS02003072    1.00   0.00  0.00  0.00  0.99  0.01  0.00  0.00  0.70  0.00
  WS02003072WS02003073    1.00   0.00  0.00  0.00  0.00  0.00  0.00  1.00  0.00  0.00
  WS02004401WS02004402    1.00   0.02  0.00  0.00  0.98  0.00  0.00  0.00  0.00  0.00
  WS02004402WS02004403    1.00   0.02  0.00  0.00  0.97  0.00  0.00  0.00  0.00  0.00
  WS02004403WS02004404    1.00   0.00  0.03  0.00  0.97  0.00  0.00  0.00  0.00  0.00
  WS02004404WS02004405    1.00   0.00  0.00  0.00  1.00  0.00  0.00  0.00  0.01  0.00
  WS02004405WS02004406    1.00   0.00  0.00  0.00  1.00  0.00  0.00  0.00  0.00  0.00
  WS02004406WS02004407    1.00   0.00  0.05  0.00  0.95  0.00  0.00  0.00  0.00  0.00
  WS02004407WS02004409    1.00   0.05  0.00  0.00  0.94  0.01  0.00  0.00  0.94  0.00
  WS02004409WS02004410    1.00   0.05  0.00  0.00  0.95  0.00  0.00  0.00  0.03  0.00
  WS02004410WS02004411    1.00   0.05  0.00  0.00  0.95  0.00  0.00  0.00  0.01  0.00
  WS02004411WS02004412    1.00   0.05  0.00  0.00  0.95  0.00  0.00  0.00  0.00  0.00
  WS02004412WS02004413    1.00   0.05  0.00  0.00  0.94  0.00  0.00  0.00  0.01  0.00
  WS02004413WS02003067    1.00   0.06  0.04  0.00  0.00  0.00  0.90  0.00  0.00  0.00
  WS02006109WS02006110    1.00   0.00  0.01  0.00  0.98  0.00  0.01  0.00  0.00  0.00
  WS02006110WS02006113    1.00   0.01  0.01  0.00  0.98  0.00  0.00  0.00  0.00  0.00
  WS02006111WS02006112    1.00   0.02  0.00  0.00  0.98  0.00  0.00  0.00  0.98  0.00
  WS02006112WS02006115    1.00   0.02  0.00  0.00  0.97  0.00  0.00  0.00  0.00  0.00
  WS02006113WS02006111    1.00   0.02  0.00  0.00  0.00  0.98  0.00  0.00  0.13  0.00
  WS02006115WS02006116    1.00   0.02  0.00  0.00  0.97  0.00  0.00  0.01  0.00  0.00
  WS02006116WS02004401    1.00   0.02  0.00  0.00  0.98  0.00  0.00  0.00  0.00  0.00
  WS02006228WS02006109    1.00   0.00  0.00  0.00  1.00  0.00  0.00  0.00  0.00  0.00
  WS02006229WS02006228    1.00   0.00  0.00  0.00  0.99  0.00  0.00  0.01  0.00  0.00
  WS02006230WS02006229    1.00   0.00  0.00  0.00  0.99  0.00  0.00  0.01  0.00  0.00
  WS02006231WS02006230    1.00   0.00  0.00  0.00  0.30  0.00  0.70  0.00  0.00  0.00
  WS02006232WS02006231    1.00   0.00  0.00  0.00  0.99  0.00  0.01  0.00  0.00  0.00
  WS02006234WS02006232    1.00   0.00  0.00  0.00  1.00  0.00  0.00  0.00  0.24  0.00
  WS02006235WS02006234    1.00   0.00  0.00  0.00  0.72  0.00  0.28  0.00  0.00  0.00
  WS02006238WS02006235    1.00   0.00  0.00  0.00  1.00  0.00  0.00  0.00  0.00  0.00
  WS02006239WS02006238    1.00   0.00  0.00  0.00  1.00  0.00  0.00  0.00  0.33  0.00
  WS02006240WS02006239    1.00   0.00  0.00  0.00  0.63  0.00  0.00  0.37  0.03  0.00
  WS02006242WS02006240    1.00   0.00  0.00  0.00  0.99  0.00  0.01  0.00  0.01  0.00
  WS02006243WS02006242    1.00   0.00  0.00  0.00  0.98  0.00  0.00  0.01  0.51  0.00
  WS02006245WS02006243    1.00   0.00  0.00  0.00  0.67  0.00  0.00  0.33  0.01  0.00
  WS02006247WS02006245    1.00   0.00  0.00  0.00  0.98  0.00  0.00  0.01  0.00  0.00
  WS02006248WS02006247    1.00   0.00  0.00  0.00  0.99  0.00  0.00  0.01  0.22  0.00
  WS02006249WS02006248    1.00   0.00  0.00  0.00  0.49  0.00  0.51  0.00  0.00  0.00
  WS02006251WS02006249    1.00   0.00  0.00  0.00  1.00  0.00  0.00  0.00  0.53  0.00
  WS02006252WS02006251    1.00   0.00  0.55  0.00  0.14  0.00  0.31  0.00  0.00  0.00
  WS02006256WS02006235    1.00   0.00  0.00  0.00  0.99  0.01  0.00  0.00  0.00  0.00
  WSF200WS02003060        1.00   0.00  0.13  0.00  0.34  0.53  0.00  0.00  0.48  0.00
  YS02001580YS02001583    1.00   0.23  0.55  0.00  0.22  0.00  0.00  0.00  0.65  0.00
  YS02001583YS02001586    1.00   0.41  0.31  0.00  0.27  0.00  0.00  0.00  0.65  0.00
  YS02001586YS02001590    1.00   0.13  0.00  0.00  0.45  0.04  0.00  0.39  0.35  0.00
  YS02001590YS02001593    1.00   0.13  0.01  0.00  0.14  0.00  0.72  0.00  0.00  0.00
  YS02001593YS02001596    1.00   0.13  0.00  0.00  0.16  0.01  0.00  0.70  0.02  0.00
  YS02001596YS02001600    1.00   0.13  0.00  0.00  0.21  0.01  0.00  0.64  0.04  0.00
  YS02001600YS02001601    1.00   0.13  0.01  0.00  0.86  0.00  0.00  0.00  0.59  0.00
  YS02001601YS02001602    1.00   0.13  0.01  0.00  0.87  0.00  0.00  0.00  0.00  0.00
  YS02001602YS02001605    1.00   0.13  0.00  0.00  0.87  0.00  0.00  0.00  0.00  0.00
  YS02001605YS02001607    1.00   0.14  0.00  0.00  0.86  0.00  0.00  0.00  0.00  0.00
  YS02001607YS02001610    1.00   0.13  0.01  0.00  0.86  0.00  0.00  0.00  0.01  0.00
  YS02001610YS02001613    1.00   0.13  0.00  0.00  0.87  0.00  0.00  0.00  0.00  0.00
  YS02001613YS02001616    1.00   0.13  0.00  0.00  0.87  0.00  0.00  0.00  0.00  0.00
  YS02001616YS02001619    1.00   0.13  0.00  0.00  0.87  0.00  0.00  0.00  0.00  0.00
  YS02001619YS02001622    1.00   0.13  0.00  0.00  0.87  0.00  0.00  0.00  0.28  0.00
  YS02001622YS02001625    1.00   0.13  0.00  0.00  0.87  0.00  0.00  0.00  0.04  0.00
  YS02001625YS02001629    1.00   0.13  0.04  0.00  0.19  0.00  0.64  0.00  0.00  0.00
  YS02001629YS02163301    1.00   0.15  0.01  0.00  0.84  0.00  0.00  0.00  0.00  0.00
  YS02001633YS02163601    1.00   0.00  0.01  0.00  0.99  0.00  0.00  0.00  0.15  0.00
  YS02001641YS02001644    1.00   0.00  0.01  0.00  0.99  0.00  0.00  0.00  0.00  0.00
  YS02001644YS02001647    1.00   0.00  0.17  0.00  0.83  0.00  0.00  0.00  0.00  0.00
  YS02001647YS02001649    1.00   0.00  0.17  0.00  0.62  0.21  0.00  0.00  0.55  0.00
  YS02001649YS02001757    1.00   0.00  0.00  0.00  0.89  0.11  0.00  0.00  0.43  0.00
  YS02001652YS02001649    1.00   0.00  0.00  0.00  0.97  0.03  0.00  0.00  0.70  0.00
  YS02001655YS02001652    1.00   0.00  0.00  0.00  0.22  0.01  0.00  0.77  0.05  0.00
  YS02001658YS02001655    1.00   0.00  0.14  0.00  0.70  0.16  0.00  0.00  0.64  0.00
  YS02001661YS02001658    1.00   0.14  0.00  0.00  0.54  0.32  0.00  0.00  0.66  0.00
  YS02001664YS02001661    1.00   0.13  0.00  0.00  0.79  0.09  0.00  0.00  0.83  0.00
  YS02001745YS02001748    1.00   0.00  0.00  0.00  0.14  0.01  0.00  0.86  0.05  0.00
  YS02001748YS02001751    1.00   0.00  0.00  0.00  0.86  0.14  0.00  0.00  0.74  0.00
  YS02001751YS02001754    1.00   0.00  0.00  0.00  0.20  0.00  0.00  0.79  0.03  0.00
  YS02001754YS02001757    1.00   0.00  0.00  0.00  1.00  0.00  0.00  0.00  0.76  0.00
  YS02001757CaochengTiaoxuchi    1.00   0.00  0.00  0.00  1.00  0.00  0.00  0.00  0.53  0.00
  YS02001759YS02001757    1.00   0.00  0.00  0.00  0.99  0.01  0.00  0.00  0.49  0.00
  YS02001762YS02001759    1.00   0.00  0.00  0.00  1.00  0.00  0.00  0.00  0.05  0.00
  YS02001765YS02001762    1.00   0.00  0.00  0.00  1.00  0.00  0.00  0.00  0.63  0.00
  YS02001767YS02001765    1.00   0.00  0.00  0.00  1.00  0.00  0.00  0.00  0.01  0.00
  YS02001770YS02001767    1.00   0.00  0.00  0.00  1.00  0.00  0.00  0.00  0.00  0.00
  YS02001774YS02001770    1.00   0.00  0.13  0.00  0.70  0.00  0.16  0.00  0.03  0.00
  YS02001779YS02001774    1.00   0.00  0.00  0.00  1.00  0.00  0.00  0.00  0.74  0.00
  YS02001783YS02001784    1.00   0.00  0.17  0.00  0.83  0.00  0.00  0.00  0.55  0.00
  YS02001784YS02001785    1.00   0.00  0.00  0.00  1.00  0.00  0.00  0.00  0.16  0.00
  YS02001786YS02001788    1.00   0.00  0.00  0.00  0.80  0.20  0.00  0.00  0.00  0.00
  YS02001788YS02001790    1.00   0.00  0.00  0.00  0.22  0.78  0.00  0.00  0.79  0.00
  YS02001790YS02001791    1.00   0.00  0.00  0.00  0.01  0.99  0.00  0.00  0.16  0.00
  YS02001791YS02001793    1.00   0.00  0.00  0.00  0.00  1.00  0.00  0.00  0.01  0.00
  YS02001793JiankangQianchi    1.00   0.00  0.00  0.00  0.99  0.01  0.00  0.00  0.92  0.00
  YS02001882YS02001884    1.00   0.15  0.01  0.00  0.84  0.00  0.00  0.00  0.00  0.00
  YS02001884YS02001887    1.00   0.06  0.05  0.00  0.89  0.00  0.00  0.00  0.00  0.00
  YS02001887YS02001890    1.00   0.00  0.00  0.00  0.97  0.00  0.03  0.00  0.00  0.00
  YS02001890YS02001895    1.00   0.00  0.16  0.00  0.84  0.00  0.00  0.00  0.00  0.00
  YS02001895YS02001898    1.00   0.16  0.00  0.00  0.82  0.00  0.02  0.00  0.00  0.00
  YS02001898YS02001901    1.00   0.16  0.00  0.00  0.84  0.00  0.00  0.00  0.01  0.00
  YS02001901YS02001904    1.00   0.16  0.00  0.00  0.84  0.00  0.00  0.00  0.00  0.00
  YS02001904YS02001907    1.00   0.00  0.16  0.00  0.84  0.00  0.00  0.00  0.00  0.00
  YS02001907YS02006553    1.00   0.00  0.02  0.00  0.98  0.00  0.00  0.00  0.00  0.00
  YS02001910YS02001907    1.00   0.00  0.00  0.00  0.97  0.00  0.00  0.03  0.12  0.00
  YS02001915YS02001910    1.00   0.00  0.00  0.00  0.97  0.03  0.00  0.00  0.15  0.00
  YS02001918YS02001915    1.00   0.00  0.01  0.00  0.98  0.02  0.00  0.00  0.73  0.00
  YS02001920YS02001918    1.00   0.00  0.01  0.00  0.99  0.00  0.00  0.00  0.00  0.00
  YS02001923YS02001920    1.00   0.00  0.00  0.00  1.00  0.00  0.00  0.00  0.91  0.00
  YS02001926YS02001923    1.00   0.00  0.07  0.00  0.08  0.00  0.85  0.00  0.00  0.00
  YS02001929YS02001926    1.00   0.00  0.13  0.00  0.87  0.00  0.00  0.00  0.80  0.00
  YS02006553YS02006556    1.00   0.01  0.00  0.00  0.99  0.00  0.00  0.00  0.03  0.00
  YS02006556YS02006558    1.00   0.00  0.00  0.00  1.00  0.00  0.00  0.00  0.00  0.00
  YS02006558YS02006561    1.00   0.17  0.00  0.00  0.07  0.75  0.00  0.00  0.18  0.00
  YS02006561YS02001783    1.00   0.17  0.00  0.00  0.11  0.72  0.00  0.00  0.67  0.00
  YS02163301YS02001633    1.00   0.00  0.15  0.00  0.85  0.00  0.00  0.00  0.00  0.00
  YS02163601YS02164001    1.00   0.00  0.08  0.00  0.92  0.00  0.00  0.00  0.00  0.00
  YS02164001YS02001641    1.00   0.01  0.07  0.00  0.92  0.00  0.00  0.00  0.05  0.00
  
  
  *************************
  Conduit Surcharge Summary
  *************************
  
  ----------------------------------------------------------------------------
                                                           Hours        Hours 
                         --------- Hours Full --------   Above Full   Capacity
  Conduit                Both Ends  Upstream  Dnstream   Normal Flow   Limited
  ----------------------------------------------------------------------------
  WS02003072WS02003073        0.01      0.01      0.01      1.40         0.01
  WS02004403WS02004404        0.01      0.01      0.01      0.01         0.01
  WS02004404WS02004405        0.01      0.01      0.01      3.50         0.01
  WS02004405WS02004406        0.01      0.01      0.01      0.79         0.01
  WS02006109WS02006110        0.74      0.74      2.29      0.93         0.01
  WS02006110WS02006113        0.01      0.01      2.29      0.01         0.01
  WS02006111WS02006112        0.01      0.01      2.52      0.01         0.01
  WS02006112WS02006115        0.01      0.01      1.04      0.01         0.01
  WS02006228WS02006109        2.27      2.30      2.27      2.69         2.26
  WS02006229WS02006228        2.26      2.27      2.26      2.44         2.24
  WS02006230WS02006229        2.34      2.42      2.34      4.23         2.34
  WS02006231WS02006230        0.76      0.76      1.05      3.88         0.01
  WS02006232WS02006231        0.97      0.97      2.31      1.06         0.01
  WS02006234WS02006232        2.19      2.19      2.31      1.03         1.01
  WS02006235WS02006234        1.38      1.39      2.21      3.70         0.03
  WS02006238WS02006235        2.24      2.24      2.31      0.01         0.01
  WS02006239WS02006238        2.28      2.30      2.28      2.31         2.04
  WS02006240WS02006239        2.25      2.28      2.25      2.31         1.93
  WS02006242WS02006240        2.28      2.28      2.30      2.43         0.01
  WS02006243WS02006242        2.28      2.28      2.29      0.01         0.08
  WS02006245WS02006243        2.27      2.27      2.27      1.53         1.49
  WS02006247WS02006245        2.27      2.27      2.27      3.54         2.25
  WS02006248WS02006247        2.26      2.26      2.27      0.01         0.08
  WS02006249WS02006248        2.26      2.26      2.26      3.50         0.01
  WS02006251WS02006249        2.26      2.26      2.26      2.37         2.16
  WS02006252WS02006251        2.42      2.42      2.42      2.42         0.01
  WS02006256WS02006235        3.70      3.76      5.31      1.34         0.01
  YS02001580YS02001583        0.81      0.81      0.86      0.01         0.01
  YS02001583YS02001586        0.82      0.82      0.95      0.01         0.01
  YS02001586YS02001590        0.95      0.95      1.03      0.01         0.01
  YS02001590YS02001593        1.03      1.03      1.05      1.07         0.01
  YS02001593YS02001596        1.04      1.04      1.15      0.01         0.01
  YS02001596YS02001600        1.20      1.20      1.31      0.01         0.01
  YS02001600YS02001601        1.36      1.36      1.58      0.01         0.01
  YS02001601YS02001602        1.50      1.50      1.62      1.29         0.01
  YS02001602YS02001605        1.46      1.46      1.50      2.37         0.01
  YS02001605YS02001607        1.42      1.46      1.42      1.54         1.42
  YS02001607YS02001610        1.03      1.03      1.06      0.01         0.01
  YS02001610YS02001613        1.03      1.03      1.06      0.01         0.01
  YS02001613YS02001616        0.98      0.98      1.03      0.01         0.01
  YS02001616YS02001619        0.97      0.97      0.98      0.15         0.12
  YS02001619YS02001622        0.97      0.97      0.97      0.98         0.90
  YS02001622YS02001625        0.97      0.97      1.16      0.01         0.01
  YS02001625YS02001629        0.92      0.92      1.16      0.01         0.01
  YS02001629YS02163301        1.16      1.16      1.17      0.11         0.12
  YS02001633YS02163601        1.20      1.20      1.24      0.25         0.25
  YS02001641YS02001644        1.13      1.15      1.13      1.64         1.10
  YS02001644YS02001647        0.91      0.91      1.13      0.02         0.01
  YS02001647YS02001649        0.91      0.91      1.06      0.01         0.01
  YS02001649YS02001757        1.05      1.06      1.13      0.07         0.03
  YS02001652YS02001649        0.87      0.87      1.06      0.01         0.01
  YS02001655YS02001652        0.66      0.66      0.85      0.01         0.01
  YS02001658YS02001655        0.38      0.38      0.66      0.01         0.01
  YS02001661YS02001658        0.16      0.16      0.38      0.01         0.01
  YS02001664YS02001661        0.01      0.01      0.22      0.01         0.01
  YS02001745YS02001748        0.03      0.03      0.32      0.01         0.01
  YS02001748YS02001751        0.36      0.36      0.52      0.01         0.01
  YS02001751YS02001754        0.52      0.52      0.75      0.01         0.01
  YS02001754YS02001757        0.81      0.81      1.13      0.01         0.01
  YS02001757CaochengTiaoxuchi        1.13      1.13      2.23      0.44         0.43
  YS02001759YS02001757        1.04      1.04      1.13      0.03         0.05
  YS02001762YS02001759        1.00      1.00      1.04      0.01         0.02
  YS02001765YS02001762        0.96      0.96      1.00      0.01         0.01
  YS02001767YS02001765        0.92      0.92      0.96      0.01         0.02
  YS02001770YS02001767        0.92      0.92      0.92      0.61         0.53
  YS02001774YS02001770        0.89      0.89      0.98      0.01         0.01
  YS02001779YS02001774        0.75      0.75      0.98      0.01         0.01
  YS02001783YS02001784        0.65      0.68      0.65      0.83         0.65
  YS02001784YS02001785        0.53      0.65      0.53      1.08         0.53
  YS02001786YS02001788        0.01      0.54      0.01      0.94         0.01
  YS02001790YS02001791        0.01      0.01      0.01      0.64         0.01
  YS02001793JiankangQianchi        0.01      0.01      7.70      0.01         0.01
  YS02001882YS02001884        0.62      0.62      0.63      0.01         0.01
  YS02001884YS02001887        0.65      0.65      0.66      0.01         0.01
  YS02001887YS02001890        0.68      0.68      0.69      0.22         0.01
  YS02001890YS02001895        0.61      0.61      0.71      0.01         0.01
  YS02001895YS02001898        0.60      0.60      0.61      0.01         0.01
  YS02001898YS02001901        0.61      0.61      0.65      0.01         0.01
  YS02001901YS02001904        0.64      0.64      0.65      0.01         0.01
  YS02001904YS02001907        0.64      0.64      0.92      0.01         0.01
  YS02001907YS02006553        1.09      1.09      1.17      0.01         0.01
  YS02001910YS02001907        0.71      0.71      0.90      0.13         0.13
  YS02001915YS02001910        0.62      0.62      0.71      0.01         0.01
  YS02001918YS02001915        0.53      0.53      0.62      0.01         0.01
  YS02001920YS02001918        0.53      0.53      0.54      0.01         0.01
  YS02001923YS02001920        0.49      0.49      0.54      0.01         0.01
  YS02001926YS02001923        0.24      0.24      0.26      0.07         0.01
  YS02001929YS02001926        0.14      0.14      0.26      0.01         0.01
  YS02006553YS02006556        0.81      0.81      0.92      0.01         0.01
  YS02006556YS02006558        0.86      0.86      0.94      0.01         0.01
  YS02006558YS02006561        0.56      0.79      0.56      1.03         0.56
  YS02006561YS02001783        0.49      0.49      0.68      0.01         0.01
  YS02163301YS02001633        1.17      1.17      1.22      0.01         0.01
  YS02163601YS02164001        1.15      1.15      1.24      0.07         0.01
  YS02164001YS02001641        1.15      1.15      1.15      0.75         0.73
  
  
  ***************
  Pumping Summary
  ***************
  
  ---------------------------------------------------------------------------------------------------------
                                                  Min       Avg       Max     Total     Power    % Time Off
                        Percent   Number of      Flow      Flow      Flow    Volume     Usage    Pump Curve
  Pump                 Utilized   Start-Ups       LPS       LPS       LPS  10^6 ltr     Kw-hr    Low   High
  ---------------------------------------------------------------------------------------------------------
  CC-R1                   20.48           3      0.00    683.00    683.00     4.028     77.16    0.0    5.5
  CC-R2                   17.28           3      0.00    683.00    683.00     3.400     65.67    0.0    6.0
  CC-S1                   44.99           4      0.00    200.00    200.00     2.591     14.45    0.0    0.0
  CC-S2                   30.21           2      0.00    200.00    200.00     1.740      9.34    0.0    0.0
  JK-R1                    9.81          11      0.00   1000.00   1000.00     2.826     33.34    0.0    0.0
  JK-R2                    1.16           2      0.00   1000.00   1000.00     0.335      3.00    0.0    0.0
  JK-S                    16.70          23      0.00    300.00    300.00     1.443     18.73    0.0    0.0
  

  Analysis begun on:  Tue Apr 15 14:17:47 2025
  Analysis ended on:  Tue Apr 15 14:17:48 2025
  Total elapsed time: 00:00:01