
  EPA STORM WATER MANAGEMENT MODEL - VERSION 5.2 (Build 5.2.4)
  PYSWMM TOOLKIT API - VERSION v1.0 (2023-11-27)
  ------------------------------------------------------------

  WARNING 04: minimum elevation drop used for Conduit WS02004404WS02004405
  WARNING 03: negative offset ignored for Link YS02001904YS02001907
  
  ****************
  Analysis Options
  ****************
  Flow Units ............... LPS
  Process Models:
    Rainfall/Runoff ........ YES
    RDII ................... NO
    Snowmelt ............... NO
    Groundwater ............ NO
    Flow Routing ........... YES
    Ponding Allowed ........ NO
    Water Quality .......... NO
  Infiltration Method ...... HORTON
  Flow Routing Method ...... DYNWAVE
  Surcharge Method ......... EXTRAN
  Starting Date ............ 08/28/2015 08:00:00
  Ending Date .............. 08/28/2015 16:00:00
  Antecedent Dry Days ...... 8.0
  Report Time Step ......... 00:01:00
  Wet Time Step ............ 00:01:00
  Dry Time Step ............ 00:01:00
  Routing Time Step ........ 30.00 sec
  Variable Time Step ....... YES
  Maximum Trials ........... 8
  Number of Threads ........ 4
  Head Tolerance ........... 0.001500 m
  
  
  **************************        Volume         Depth
  Runoff Quantity Continuity     hectare-m            mm
  **************************     ---------       -------
  Total Precipitation ......         2.741        82.621
  Evaporation Loss .........         0.000         0.000
  Infiltration Loss ........         0.105         3.165
  Surface Runoff ...........         2.603        78.476
  Final Storage ............         0.033         0.997
  Continuity Error (%) .....        -0.020
  
  
  **************************        Volume        Volume
  Flow Routing Continuity        hectare-m      10^6 ltr
  **************************     ---------     ---------
  Dry Weather Inflow .......         0.025         0.251
  Wet Weather Inflow .......         2.603        26.027
  Groundwater Inflow .......         0.000         0.000
  RDII Inflow ..............         0.000         0.000
  External Inflow ..........         0.083         0.834
  External Outflow .........         1.632        16.320
  Flooding Loss ............         1.047        10.467
  Evaporation Loss .........         0.000         0.000
  Exfiltration Loss ........         0.000         0.000
  Initial Stored Volume ....         0.243         2.431
  Final Stored Volume ......         0.280         2.805
  Continuity Error (%) .....        -0.167
  
  
  *************************
  Highest Continuity Errors
  *************************
  Node YS02001884 (5.24%)
  Node YS02001583 (-3.25%)
  
  
  ***************************
  Time-Step Critical Elements
  ***************************
  Link WS02006252WS02006251 (44.03%)
  Link WS02004404WS02004405 (15.37%)
  Link WS02006238WS02006235 (9.52%)
  Link YS02001791YS02001793 (9.17%)
  Link WS02006235WS02006234 (7.53%)
  
  
  ********************************
  Highest Flow Instability Indexes
  ********************************
  Link WS02006113WS02006111 (49)
  Link WS02006111WS02006112 (27)
  Link WS02004404WS02004405 (22)
  Link WS02004403WS02004404 (20)
  Link WS02004405WS02004406 (18)
  
  
  *********************************
  Most Frequent Nonconverging Nodes
  *********************************
  Node CC-1 (11.28%)
  Node CC-2 (11.28%)
  Node JK-1 (11.28%)
  Node JK-2 (11.28%)
  Node WSC (11.28%)
  
  
  *************************
  Routing Time Step Summary
  *************************
  Minimum Time Step           :     0.02 sec
  Average Time Step           :     2.04 sec
  Maximum Time Step           :     7.04 sec
  % of Time in Steady State   :     0.00
  Average Iterations per Step :     3.05
  % of Steps Not Converging   :    11.28
  Time Step Frequencies       :
     30.000 - 13.228 sec      :     0.00 %
     13.228 -  5.833 sec      :     9.55 %
      5.833 -  2.572 sec      :    19.08 %
      2.572 -  1.134 sec      :    21.43 %
      1.134 -  0.500 sec      :    49.93 %
  
  
  ***************************
  Subcatchment Runoff Summary
  ***************************
  
  ------------------------------------------------------------------------------------------------------------------------------
                            Total      Total      Total      Total     Imperv       Perv      Total       Total     Peak  Runoff
                           Precip      Runon       Evap      Infil     Runoff     Runoff     Runoff      Runoff   Runoff   Coeff
  Subcatchment                 mm         mm         mm         mm         mm         mm         mm    10^6 ltr      LPS
  ------------------------------------------------------------------------------------------------------------------------------
  sub60                     82.62       0.00       0.00       1.87      71.51       8.05      79.56        1.05   712.26   0.963
  sub61                     82.62       0.00       0.00       2.72      67.45      11.33      78.78        1.45   991.45   0.954
  sub62                     82.62       0.00       0.00       1.24      74.73       5.37      80.09        2.19  1408.40   0.969
  sub63                     82.62       0.00       0.00       5.06      57.69      18.90      76.60        1.74  1146.87   0.927
  sub64                     82.62       0.00       0.00       2.55      69.02       9.84      78.87        1.89  1167.95   0.955
  sub65                     82.62       0.00       0.00       2.21      70.63       8.53      79.16        2.18  1308.51   0.958
  sub66                     82.62       0.00       0.00       6.33      57.58      17.63      75.21        3.51  1811.00   0.910
  sub67                     82.62       0.00       0.00       1.19      74.77       5.42      80.19        1.49  1051.60   0.971
  sub68                     82.62       0.00       0.00       2.25      69.87       9.32      79.19        2.18  1441.93   0.958
  sub69                     82.62       0.00       0.00       2.05      70.12      10.35      80.46        2.98  1739.09   0.974
  sub70                     82.62       0.00       0.00       6.91      54.36      21.18      75.54        2.18  1021.77   0.914
  sub71                     82.62       0.00       0.00       1.28      74.68       5.33      80.01        2.09  1258.86   0.968
  sub72                     82.62       0.00       0.00       1.14      75.43       4.64      80.07        1.10   617.45   0.969
  
  
  ******************
  Node Depth Summary
  ******************
  
  ---------------------------------------------------------------------------------
                                 Average  Maximum  Maximum  Time of Max    Reported
                                   Depth    Depth      HGL   Occurrence   Max Depth
  Node                 Type       Meters   Meters   Meters  days hr:min      Meters
  ---------------------------------------------------------------------------------
  WS02003060           JUNCTION     0.24     0.38     5.32     0  02:58        0.38
  WS02003066           JUNCTION     0.20     0.30     5.85     0  02:58        0.30
  WS02003067           JUNCTION     0.51     0.70     6.02     0  02:58        0.70
  WS02003069           JUNCTION     0.27     0.43     5.01     0  02:59        0.43
  WS02003072           JUNCTION     0.34     0.50     4.87     0  02:59        0.50
  WS02003073           JUNCTION     0.19     0.30     4.36     0  03:00        0.30
  WS02004401           JUNCTION     0.61     0.88     6.88     0  02:55        0.87
  WS02004402           JUNCTION     0.65     0.90     6.86     0  02:56        0.90
  WS02004403           JUNCTION     0.67     0.92     6.85     0  02:55        0.92
  WS02004404           JUNCTION     0.75     1.03     6.88     0  02:54        1.01
  WS02004405           JUNCTION     0.73     0.97     6.82     0  02:55        0.96
  WS02004406           JUNCTION     0.74     0.96     6.79     0  02:56        0.96
  WS02004407           JUNCTION     0.18     0.30     6.61     0  02:56        0.30
  WS02004409           JUNCTION     0.41     0.67     6.44     0  02:56        0.67
  WS02004410           JUNCTION     0.43     0.68     6.40     0  02:57        0.68
  WS02004411           JUNCTION     0.45     0.69     6.37     0  02:57        0.69
  WS02004412           JUNCTION     0.47     0.70     6.34     0  02:57        0.70
  WS02004413           JUNCTION     0.63     0.86     6.33     0  02:57        0.86
  WS02006109           JUNCTION     0.67     1.27     7.89     0  02:03        0.98
  WS02006110           JUNCTION     0.67     1.38     7.96     0  02:03        0.94
  WS02006111           JUNCTION     0.18     0.29     7.00     0  03:20        0.29
  WS02006112           JUNCTION     0.77     1.12     7.00     0  02:03        1.07
  WS02006113           JUNCTION     0.28     0.46     7.35     0  03:19        0.46
  WS02006115           JUNCTION     0.50     0.77     6.91     0  02:54        0.77
  WS02006116           JUNCTION     0.59     0.85     6.89     0  02:55        0.85
  WS02006228           JUNCTION     0.66     1.31     7.96     0  02:03        1.06
  WS02006229           JUNCTION     0.64     1.36     8.06     0  02:03        1.21
  WS02006230           JUNCTION     0.64     1.60     8.35     0  02:03        1.21
  WS02006231           JUNCTION     0.44     1.39     8.51     0  02:03        1.06
  WS02006232           JUNCTION     0.57     1.55     8.59     0  02:03        1.53
  WS02006234           JUNCTION     0.50     1.87     9.03     0  03:27        1.87
  WS02006235           JUNCTION     0.54     2.00     9.16     0  02:03        2.00
  WS02006238           JUNCTION     0.57     2.14     9.28     0  02:03        2.14
  WS02006239           JUNCTION     0.54     2.03     9.24     0  02:03        2.03
  WS02006240           JUNCTION     0.51     1.87     9.16     0  02:03        1.87
  WS02006242           JUNCTION     0.58     1.55     8.82     0  01:56        1.55
  WS02006243           JUNCTION     0.49     1.48     8.90     0  01:56        1.29
  WS02006245           JUNCTION     0.49     1.40     8.89     0  01:56        1.20
  WS02006247           JUNCTION     0.52     1.29     8.79     0  01:56        1.17
  WS02006248           JUNCTION     0.48     1.10     8.69     0  01:56        1.10
  WS02006249           JUNCTION     0.51     1.09     8.69     0  01:50        1.09
  WS02006251           JUNCTION     0.51     1.49     9.16     0  01:57        1.49
  WS02006252           JUNCTION     0.36     1.50     9.74     0  00:00        1.07
  WS02006256           JUNCTION     1.03     2.35     9.28     0  00:00        2.35
  WSF200               JUNCTION     0.18     0.29     5.52     0  02:58        0.29
  YS02001580           JUNCTION     0.10     1.05     9.59     0  02:05        0.77
  YS02001583           JUNCTION     0.13     1.08     9.58     0  02:05        0.82
  YS02001586           JUNCTION     0.21     1.13     9.30     0  02:05        1.13
  YS02001590           JUNCTION     0.31     1.40     9.26     0  02:09        1.40
  YS02001593           JUNCTION     0.24     1.30     9.16     0  02:05        1.30
  YS02001596           JUNCTION     0.33     1.66     9.08     0  02:05        1.65
  YS02001600           JUNCTION     0.40     1.87     9.00     0  02:09        1.87
  YS02001601           JUNCTION     0.59     2.06     8.90     0  02:03        2.06
  YS02001602           JUNCTION     0.50     1.87     8.77     0  02:08        1.87
  YS02001605           JUNCTION     0.47     1.78     8.68     0  02:09        1.78
  YS02001607           JUNCTION     0.46     1.65     8.50     0  02:09        1.65
  YS02001610           JUNCTION     0.51     1.68     8.48     0  02:09        1.68
  YS02001613           JUNCTION     0.46     1.67     8.51     0  02:25        1.66
  YS02001616           JUNCTION     0.39     1.61     8.52     0  02:20        1.61
  YS02001619           JUNCTION     0.37     1.61     8.54     0  02:20        1.61
  YS02001622           JUNCTION     0.36     1.58     8.49     0  02:25        1.58
  YS02001625           JUNCTION     0.63     1.78     8.38     0  02:09        1.78
  YS02001629           JUNCTION     0.49     1.85     8.40     0  02:10        1.85
  YS02001633           JUNCTION     0.57     2.00     8.46     0  02:24        2.00
  YS02001641           JUNCTION     0.55     1.95     8.38     0  02:24        1.94
  YS02001644           JUNCTION     0.55     1.92     8.35     0  02:13        1.92
  YS02001647           JUNCTION     0.34     1.77     8.38     0  02:24        1.77
  YS02001649           JUNCTION     0.39     2.01     8.40     0  02:24        2.00
  YS02001652           JUNCTION     0.28     1.87     8.47     0  02:24        1.87
  YS02001655           JUNCTION     0.22     1.69     8.54     0  02:24        1.67
  YS02001658           JUNCTION     0.16     1.47     8.61     0  02:24        1.46
  YS02001661           JUNCTION     0.18     1.30     8.71     0  02:19        1.26
  YS02001664           JUNCTION     0.06     0.76     8.69     0  02:24        0.75
  YS02001745           JUNCTION     0.09     0.95     8.47     0  02:24        0.95
  YS02001748           JUNCTION     0.16     1.38     8.46     0  02:24        1.37
  YS02001751           JUNCTION     0.19     1.54     8.42     0  02:24        1.54
  YS02001754           JUNCTION     0.25     1.78     8.39     0  02:23        1.78
  YS02001757           JUNCTION     0.43     2.10     8.36     0  02:24        2.10
  YS02001759           JUNCTION     0.36     2.09     8.45     0  02:24        2.08
  YS02001762           JUNCTION     0.35     2.06     8.46     0  02:24        2.06
  YS02001765           JUNCTION     0.33     2.00     8.45     0  02:24        2.00
  YS02001767           JUNCTION     0.32     2.03     8.52     0  02:09        2.03
  YS02001770           JUNCTION     0.33     1.95     8.44     0  02:09        1.95
  YS02001774           JUNCTION     0.40     2.05     8.47     0  02:09        2.05
  YS02001779           JUNCTION     0.23     1.68     8.37     0  02:16        1.68
  YS02001783           JUNCTION     0.25     1.25     7.39     0  02:23        1.23
  YS02001784           JUNCTION     0.26     1.13     7.20     0  02:23        1.12
  YS02001786           JUNCTION     0.22     0.88     6.91     0  02:20        0.87
  YS02001788           JUNCTION     0.16     0.63     6.60     0  02:23        0.62
  YS02001790           JUNCTION     0.19     0.73     6.37     0  02:23        0.72
  YS02001791           JUNCTION     0.12     0.44     5.91     0  02:25        0.43
  YS02001793           JUNCTION     0.06     0.30     5.14     0  02:16        0.29
  YS02001882           JUNCTION     0.32     1.67     8.38     0  02:23        1.66
  YS02001884           JUNCTION     0.41     1.77     8.39     0  02:23        1.75
  YS02001887           JUNCTION     0.49     1.85     8.38     0  02:24        1.84
  YS02001890           JUNCTION     0.52     1.81     8.32     0  02:12        1.81
  YS02001895           JUNCTION     0.29     1.57     8.31     0  02:30        1.56
  YS02001898           JUNCTION     0.30     1.56     8.30     0  02:17        1.56
  YS02001901           JUNCTION     0.41     1.68     8.29     0  02:25        1.67
  YS02001904           JUNCTION     0.39     1.64     8.27     0  02:20        1.63
  YS02001907           JUNCTION     0.72     1.96     8.25     0  02:12        1.96
  YS02001910           JUNCTION     0.52     1.99     8.50     0  02:24        1.98
  YS02001915           JUNCTION     0.33     1.97     8.69     0  02:25        1.97
  YS02001918           JUNCTION     0.18     1.66     8.73     0  02:25        1.66
  YS02001920           JUNCTION     0.26     1.75     8.76     0  02:25        1.74
  YS02001923           JUNCTION     0.14     1.55     8.81     0  02:13        1.51
  YS02001926           JUNCTION     0.17     1.41     8.85     0  02:13        1.35
  YS02001929           JUNCTION     0.10     1.29     8.99     0  02:13        1.12
  YS02006553           JUNCTION     0.72     1.98     8.27     0  02:20        1.98
  YS02006556           JUNCTION     0.69     1.97     8.28     0  02:23        1.96
  YS02006558           JUNCTION     0.73     2.03     8.29     0  02:20        2.03
  YS02006561           JUNCTION     0.16     0.91     7.57     0  02:23        0.90
  YS02163301           JUNCTION     0.51     1.92     8.43     0  02:24        1.91
  YS02163601           JUNCTION     0.61     2.04     8.43     0  02:09        2.04
  YS02164001           JUNCTION     0.54     1.96     8.41     0  02:09        1.96
  CC-1                 OUTFALL      0.00     0.00     0.00     0  00:00        0.00
  CC-2                 OUTFALL      0.00     0.00     0.00     0  00:00        0.00
  JK-1                 OUTFALL      0.00     0.00     0.00     0  00:00        0.00
  JK-2                 OUTFALL      0.00     0.00     0.00     0  00:00        0.00
  WSC                  OUTFALL      0.19     0.30     0.97     0  03:00        0.30
  CC-storage           STORAGE      1.03     1.93     7.43     0  02:46        1.93
  JK-storage           STORAGE      3.24     4.24     5.04     0  02:20        4.21
  
  
  *******************
  Node Inflow Summary
  *******************
  
  -------------------------------------------------------------------------------------------------
                                  Maximum  Maximum                  Lateral       Total        Flow
                                  Lateral    Total  Time of Max      Inflow      Inflow     Balance
                                   Inflow   Inflow   Occurrence      Volume      Volume       Error
  Node                 Type           LPS      LPS  days hr:min    10^6 ltr    10^6 ltr     Percent
  -------------------------------------------------------------------------------------------------
  WS02003060           JUNCTION     16.53   553.21     0  02:58       0.476        5.87       0.064
  WS02003066           JUNCTION      0.00   536.69     0  02:58           0        5.39       0.036
  WS02003067           JUNCTION      0.00   536.70     0  02:58           0         5.4       0.092
  WS02003069           JUNCTION      0.32   553.46     0  02:58     0.00922        5.87       0.110
  WS02003072           JUNCTION      0.00   553.16     0  02:59           0        5.87       0.178
  WS02003073           JUNCTION      1.82   554.66     0  02:59      0.0524        5.91       0.157
  WS02004401           JUNCTION      0.00   539.25     0  02:27           0        5.51       0.206
  WS02004402           JUNCTION      0.00   541.03     0  02:42           0         5.5       0.207
  WS02004403           JUNCTION      0.00   538.72     0  02:37           0        5.49       0.199
  WS02004404           JUNCTION      0.16   558.29     0  02:56     0.00467        5.48       0.189
  WS02004405           JUNCTION      0.04   605.14     0  02:56      0.0011        5.48       0.162
  WS02004406           JUNCTION      0.00   544.26     0  02:56           0        5.47       0.406
  WS02004407           JUNCTION      0.00   539.64     0  02:56           0        5.44       0.036
  WS02004409           JUNCTION      0.00   538.99     0  02:56           0        5.44       0.083
  WS02004410           JUNCTION      0.00   538.44     0  02:57           0        5.44       0.117
  WS02004411           JUNCTION      0.00   537.88     0  02:57           0        5.43       0.139
  WS02004412           JUNCTION      0.00   537.41     0  02:57           0        5.42       0.175
  WS02004413           JUNCTION      0.00   537.18     0  02:57           0        5.41       0.296
  WS02006109           JUNCTION      1.23   595.23     0  02:03      0.0354        5.56       0.141
  WS02006110           JUNCTION      0.00   598.77     0  02:03           0        5.55       0.138
  WS02006111           JUNCTION      0.00   565.18     0  03:19           0        5.54       0.019
  WS02006112           JUNCTION      0.00   545.37     0  03:20           0        5.54       0.333
  WS02006113           JUNCTION      0.00   591.44     0  02:03           0        5.55       0.039
  WS02006115           JUNCTION      0.00   553.00     0  02:03           0        5.53       0.141
  WS02006116           JUNCTION      0.00   542.36     0  02:00           0        5.52       0.069
  WS02006228           JUNCTION      0.00   585.68     0  02:03           0        5.53       0.065
  WS02006229           JUNCTION      0.00   580.58     0  02:03           0        5.54       0.095
  WS02006230           JUNCTION     10.28   600.67     0  03:27       0.296        5.54       0.072
  WS02006231           JUNCTION      0.00   628.25     0  03:27           0        5.24      -0.041
  WS02006232           JUNCTION      0.00   623.17     0  03:27           0        5.25       0.207
  WS02006234           JUNCTION      0.00   600.28     0  03:27           0        5.24      -0.156
  WS02006235           JUNCTION      0.00   569.14     0  02:06           0        5.28       0.128
  WS02006238           JUNCTION      0.00   427.37     0  02:00           0        4.21      -0.110
  WS02006239           JUNCTION      0.00   425.78     0  02:00           0        4.19      -0.083
  WS02006240           JUNCTION      0.00   420.68     0  02:00           0        4.17      -0.051
  WS02006242           JUNCTION      0.00   420.36     0  03:20           0        4.16      -0.101
  WS02006243           JUNCTION      0.00   419.80     0  03:20           0        4.16       0.023
  WS02006245           JUNCTION      0.00   419.38     0  02:45           0        4.17       0.305
  WS02006247           JUNCTION      0.00   419.94     0  02:45           0        4.17       0.013
  WS02006248           JUNCTION      0.00   421.73     0  02:00           0        4.17       0.035
  WS02006249           JUNCTION      0.00   459.02     0  00:00           0        4.44       0.253
  WS02006251           JUNCTION      0.08   410.09     0  03:27     0.00222        4.44      -0.023
  WS02006252           JUNCTION      0.00   400.00     0  00:00           0        4.43      -0.043
  WS02006256           JUNCTION      0.00   300.00     0  00:00           0        1.58      -0.655
  WSF200               JUNCTION      0.00   536.72     0  02:58           0        5.39       0.018
  YS02001580           JUNCTION      0.00    72.05     0  02:05           0      0.0041      -2.763
  YS02001583           JUNCTION      0.00   102.26     0  02:05           0      0.0159      -3.148
  YS02001586           JUNCTION   1021.77  1021.77     0  02:26        2.18        2.19       0.041
  YS02001590           JUNCTION      0.00   318.36     0  02:38           0        1.54      -0.027
  YS02001593           JUNCTION      0.00   318.11     0  02:38           0        1.54       0.003
  YS02001596           JUNCTION      0.00   318.11     0  02:17           0        1.54      -0.008
  YS02001600           JUNCTION      0.00   317.99     0  02:19           0        1.54       0.011
  YS02001601           JUNCTION   1739.09  2056.50     0  02:25        2.98        4.52       0.020
  YS02001602           JUNCTION      0.00   492.61     0  02:05           0        2.55       0.015
  YS02001605           JUNCTION      0.00   492.60     0  02:05           0        2.39       0.016
  YS02001607           JUNCTION      0.00   492.34     0  02:05           0        2.39       0.084
  YS02001610           JUNCTION      0.00   952.37     0  02:27           0        2.85       0.082
  YS02001613           JUNCTION      0.00   615.81     0  02:27           0        2.23       0.074
  YS02001616           JUNCTION      0.00   615.87     0  02:28           0        2.23       0.016
  YS02001619           JUNCTION   1811.00  1811.00     0  02:26        3.51        5.27       0.000
  YS02001622           JUNCTION      0.00  1053.92     0  02:28           0        4.78      -0.001
  YS02001625           JUNCTION      0.00  1504.50     0  02:27           0        5.18       0.200
  YS02001629           JUNCTION      0.00   884.20     0  02:07           0        3.68      -0.004
  YS02001633           JUNCTION   1308.71  1308.71     0  02:25        2.18        5.42       0.059
  YS02001641           JUNCTION      0.00  1231.13     0  02:09           0        4.97       0.050
  YS02001644           JUNCTION   1167.99  2099.34     0  02:25         1.9         6.9       0.048
  YS02001647           JUNCTION      0.00  1556.33     0  02:09           0        5.83       0.003
  YS02001649           JUNCTION      0.00  1740.78     0  02:10           0        7.53       0.001
  YS02001652           JUNCTION      0.00  1154.55     0  02:25           0        1.74      -0.071
  YS02001655           JUNCTION      0.15  1154.47     0  02:25     0.00443        1.74       0.039
  YS02001658           JUNCTION      0.00  1154.34     0  02:25           0        1.74      -0.038
  YS02001661           JUNCTION      0.00  1153.96     0  02:25           0        1.74      -0.021
  YS02001664           JUNCTION   1146.87  1146.87     0  02:25        1.74        1.74      -0.007
  YS02001745           JUNCTION    712.27   712.27     0  02:25        1.05        1.05       0.102
  YS02001748           JUNCTION      0.04   716.28     0  02:25      0.0013        1.05      -0.171
  YS02001751           JUNCTION      0.01   716.36     0  02:25    0.000317        1.05       0.075
  YS02001754           JUNCTION      0.26   716.97     0  02:25     0.00749        1.06      -0.133
  YS02001757           JUNCTION      0.00  2911.21     0  02:23           0        11.7       0.004
  YS02001759           JUNCTION    991.49  1291.18     0  02:25        1.45        3.15      -0.008
  YS02001762           JUNCTION      0.00   670.70     0  02:17           0        1.71      -0.003
  YS02001765           JUNCTION      0.00   670.50     0  02:17           0        1.71      -0.001
  YS02001767           JUNCTION      0.54   670.99     0  02:17      0.0154        1.71      -0.004
  YS02001770           JUNCTION   1408.55  1408.55     0  02:25         2.2        2.24      -0.032
  YS02001774           JUNCTION      0.00   851.05     0  02:26           0       0.532       0.195
  YS02001779           JUNCTION      0.01   851.07     0  02:27    0.000144       0.489      -0.074
  YS02001783           JUNCTION      0.00  1167.32     0  02:24           0         4.7       0.004
  YS02001784           JUNCTION      1.06  1168.61     0  02:24      0.0305        4.73       0.011
  YS02001786           JUNCTION      0.06  1168.02     0  02:23     0.00162        4.73       0.015
  YS02001788           JUNCTION      0.07  1168.93     0  02:24     0.00204        4.73       0.006
  YS02001790           JUNCTION      0.15  1177.35     0  02:23     0.00446        4.74       0.024
  YS02001791           JUNCTION      0.00  1298.97     0  02:22           0        4.74      -0.035
  YS02001793           JUNCTION      0.00  1273.49     0  02:25           0        4.74       0.003
  YS02001882           JUNCTION      0.00    29.38     0  02:09           0      0.0127       5.095
  YS02001884           JUNCTION      0.00    35.94     0  02:08           0      0.0486       5.526
  YS02001887           JUNCTION   1052.05  1052.08     0  02:25         1.5        1.54       0.285
  YS02001890           JUNCTION      0.00  1051.32     0  02:25           0         1.5       0.338
  YS02001895           JUNCTION      0.00   517.07     0  02:29           0        1.29       0.131
  YS02001898           JUNCTION      0.00   517.08     0  02:30           0        1.29       0.011
  YS02001901           JUNCTION      0.00   517.25     0  02:30           0        1.29       0.257
  YS02001904           JUNCTION      0.00   517.14     0  02:29           0         1.3       0.216
  YS02001907           JUNCTION      0.00  2677.17     0  02:25           0        4.62       0.384
  YS02001910           JUNCTION      0.00  1882.18     0  02:25           0        3.28       0.215
  YS02001915           JUNCTION   1258.88  1881.90     0  02:25        2.09         3.3       0.045
  YS02001918           JUNCTION      0.00   625.50     0  02:25           0        1.22       0.024
  YS02001920           JUNCTION      2.87   624.72     0  02:25      0.0827        1.21       0.076
  YS02001923           JUNCTION      0.04   621.32     0  02:25     0.00109        1.11      -0.010
  YS02001926           JUNCTION      0.05   620.85     0  02:25      0.0015         1.1      -0.000
  YS02001929           JUNCTION    617.45   617.45     0  02:26         1.1         1.1      -0.020
  YS02006553           JUNCTION      0.00   805.56     0  02:41           0        2.65       0.441
  YS02006556           JUNCTION      0.00   806.00     0  02:41           0        2.66       0.290
  YS02006558           JUNCTION   1442.81  1442.81     0  02:25         2.2        4.78       0.069
  YS02006561           JUNCTION      0.00  1167.82     0  02:24           0         4.7       0.002
  YS02163301           JUNCTION      0.00   884.40     0  02:07           0        3.68       0.038
  YS02163601           JUNCTION      0.11  1212.87     0  02:08     0.00317        4.96       0.094
  YS02164001           JUNCTION      0.00  1213.18     0  02:08           0        4.96       0.038
  CC-1                 OUTFALL       0.00   683.00     0  00:00           0        3.93       0.000
  CC-2                 OUTFALL       0.00   683.00     0  00:00           0        3.36       0.000
  JK-1                 OUTFALL       0.00  1000.00     0  00:00           0        2.55       0.000
  JK-2                 OUTFALL       0.00  1000.00     0  00:00           0       0.587       0.000
  WSC                  OUTFALL       0.00   554.25     0  03:00           0         5.9       0.000
  CC-storage           STORAGE       0.00  2909.05     0  02:23           0        13.9      -0.044
  JK-storage           STORAGE       0.00  1219.90     0  02:39           0        4.89       0.068
  
  
  **********************
  Node Surcharge Summary
  **********************
  
  Surcharging occurs when water rises above the top of the highest conduit.
  ---------------------------------------------------------------------
                                               Max. Height   Min. Depth
                                   Hours       Above Crown    Below Rim
  Node                 Type      Surcharged         Meters       Meters
  ---------------------------------------------------------------------
  WS02004404           JUNCTION        0.01          0.026        2.754
  WS02006109           JUNCTION        2.43          0.450        1.370
  WS02006110           JUNCTION        0.82          0.467        1.383
  WS02006112           JUNCTION        1.15          0.121        1.559
  WS02006228           JUNCTION        2.43          0.479        1.721
  WS02006229           JUNCTION        2.43          0.565        1.885
  WS02006230           JUNCTION        0.83          0.522        1.048
  WS02006231           JUNCTION        1.03          0.675        0.855
  WS02006232           JUNCTION        2.47          0.853        0.627
  WS02006234           JUNCTION        1.50          1.154        0.086
  WS02006235           JUNCTION        2.40          1.290        0.000
  WS02006238           JUNCTION        2.45          1.418        0.012
  WS02006239           JUNCTION        2.42          1.290        0.000
  WS02006240           JUNCTION        2.44          1.160        0.230
  WS02006242           JUNCTION        2.45          0.820        0.000
  WS02006243           JUNCTION        2.34          0.770        0.000
  WS02006245           JUNCTION        2.33          0.692        0.158
  WS02006247           JUNCTION        2.33          0.584        0.176
  WS02006248           JUNCTION        2.32          0.380        0.000
  WS02006249           JUNCTION        2.31          0.390        0.000
  WS02006251           JUNCTION        1.13          0.463        0.717
  WS02006252           JUNCTION        2.50          1.100        0.000
  WS02006256           JUNCTION        5.37          2.050        0.000
  YS02001580           JUNCTION        0.78          0.450        0.000
  YS02001583           JUNCTION        0.80          0.442        0.058
  YS02001586           JUNCTION        0.94          0.510        0.000
  YS02001590           JUNCTION        1.02          0.750        0.000
  YS02001593           JUNCTION        1.01          0.680        0.160
  YS02001596           JUNCTION        1.14          0.932        0.138
  YS02001600           JUNCTION        1.30          1.190        0.000
  YS02001601           JUNCTION        1.66          1.440        0.000
  YS02001602           JUNCTION        1.55          1.270        0.000
  YS02001605           JUNCTION        1.50          1.180        0.000
  YS02001607           JUNCTION        1.01          0.649        0.031
  YS02001610           JUNCTION        1.03          0.680        0.000
  YS02001613           JUNCTION        1.01          0.670        0.030
  YS02001616           JUNCTION        0.97          0.610        0.000
  YS02001619           JUNCTION        0.96          0.610        0.000
  YS02001622           JUNCTION        0.96          0.584        0.036
  YS02001625           JUNCTION        1.13          0.780        0.000
  YS02001629           JUNCTION        0.90          0.470        0.000
  YS02001633           JUNCTION        1.17          0.985        0.075
  YS02001641           JUNCTION        1.11          0.946        0.154
  YS02001644           JUNCTION        1.08          0.920        0.000
  YS02001647           JUNCTION        0.90          0.768        0.132
  YS02001649           JUNCTION        1.02          1.006        0.044
  YS02001652           JUNCTION        0.86          0.840        0.290
  YS02001655           JUNCTION        0.69          0.686        0.514
  YS02001658           JUNCTION        0.39          0.466        0.834
  YS02001661           JUNCTION        0.12          0.232        1.158
  YS02001748           JUNCTION        0.33          0.299        0.891
  YS02001751           JUNCTION        0.55          0.542        0.658
  YS02001754           JUNCTION        0.79          0.733        0.417
  YS02001757           JUNCTION        1.09          1.100        0.110
  YS02001759           JUNCTION        1.01          1.089        0.121
  YS02001762           JUNCTION        0.98          1.055        0.095
  YS02001765           JUNCTION        0.94          1.001        0.099
  YS02001767           JUNCTION        0.92          1.030        0.000
  YS02001770           JUNCTION        0.89          0.920        0.000
  YS02001774           JUNCTION        0.97          1.050        0.000
  YS02001779           JUNCTION        0.77          0.680        0.000
  YS02001783           JUNCTION        0.67          0.446        1.154
  YS02001784           JUNCTION        0.64          0.329        1.161
  YS02001786           JUNCTION        0.52          0.084        1.346
  YS02001882           JUNCTION        0.61          0.666        0.164
  YS02001884           JUNCTION        0.62          0.710        0.160
  YS02001887           JUNCTION        0.66          0.795        0.155
  YS02001890           JUNCTION        0.67          0.760        0.000
  YS02001895           JUNCTION        0.59          0.567        0.183
  YS02001898           JUNCTION        0.59          0.535        0.205
  YS02001901           JUNCTION        0.64          0.679        0.191
  YS02001904           JUNCTION        0.63          0.638        0.212
  YS02001907           JUNCTION        0.96          0.950        0.000
  YS02001910           JUNCTION        0.71          0.988        0.112
  YS02001915           JUNCTION        0.60          0.968        0.032
  YS02001918           JUNCTION        0.51          0.663        0.147
  YS02001920           JUNCTION        0.52          0.750        0.390
  YS02001923           JUNCTION        0.19          0.335        0.485
  YS02001926           JUNCTION        0.21          0.406        0.494
  YS02001929           JUNCTION        0.07          0.291        0.489
  YS02006553           JUNCTION        0.99          0.982        0.208
  YS02006556           JUNCTION        0.82          0.929        0.421
  YS02006558           JUNCTION        0.80          0.927        0.473
  YS02006561           JUNCTION        0.47          0.111        1.039
  YS02163301           JUNCTION        1.15          0.916        0.114
  YS02163601           JUNCTION        1.21          1.037        0.043
  YS02164001           JUNCTION        1.12          0.955        0.145
  
  
  *********************
  Node Flooding Summary
  *********************
  
  Flooding refers to all water that overflows a node, whether it ponds or not.
  --------------------------------------------------------------------------
                                                             Total   Maximum
                                 Maximum   Time of Max       Flood    Ponded
                        Hours       Rate    Occurrence      Volume     Depth
  Node                 Flooded       LPS   days hr:min    10^6 ltr    Meters
  --------------------------------------------------------------------------
  WS02006235              0.01      3.57      0  02:03       0.000     0.000
  WS02006239              0.01      1.21      0  02:03       0.000     0.000
  WS02006242              0.01     20.91      0  01:56       0.000     0.000
  WS02006243              0.01     14.13      0  01:56       0.000     0.000
  WS02006248              0.02     25.99      0  03:27       0.001     0.000
  WS02006249              1.09    119.77      0  01:57       0.258     0.000
  WS02006252              0.01    245.63      0  00:00       0.000     0.000
  WS02006256              1.46    293.19      0  00:00       0.506     0.000
  YS02001580              0.01     46.17      0  02:05       0.000     0.000
  YS02001586              0.62    704.12      0  02:26       0.645     0.000
  YS02001590              0.01      0.14      0  02:09       0.000     0.000
  YS02001600              0.01      0.11      0  02:09       0.000     0.000
  YS02001601              0.86   1658.48      0  02:25       1.964     0.000
  YS02001602              0.76     62.07      0  02:44       0.159     0.000
  YS02001605              0.01      0.31      0  02:45       0.000     0.000
  YS02001610              0.69    951.75      0  02:28       1.082     0.000
  YS02001616              0.03      1.55      0  02:24       0.000     0.000
  YS02001619              0.09    149.83      0  02:26       0.027     0.000
  YS02001625              0.66   1504.41      0  02:28       1.936     0.000
  YS02001629              0.17    216.54      0  02:25       0.058     0.000
  YS02001644              0.33   2099.31      0  02:25       1.106     0.000
  YS02001767              0.01     15.22      0  02:09       0.000     0.000
  YS02001770              0.07    265.18      0  02:25       0.037     0.000
  YS02001774              0.01      5.88      0  02:09       0.000     0.000
  YS02001779              0.28    850.75      0  02:27       0.472     0.000
  YS02001890              0.24    535.64      0  02:25       0.199     0.000
  YS02001907              0.45   2676.90      0  02:25       2.017     0.000
  
  
  **********************
  Storage Volume Summary
  **********************
  
  ------------------------------------------------------------------------------------------------
                         Average    Avg   Evap  Exfil     Maximum    Max    Time of Max    Maximum
                          Volume   Pcnt   Pcnt   Pcnt      Volume   Pcnt     Occurrence    Outflow
  Storage Unit           1000 m³   Full   Loss   Loss     1000 m³   Full    days hr:min        LPS
  ------------------------------------------------------------------------------------------------
  CC-storage               2.875   44.8    0.0    0.0       5.377   83.9       0  02:46    1783.53
  JK-storage               0.163   55.9    0.0    0.0       0.213   73.1       0  02:20    2300.00
  
  
  ***********************
  Outfall Loading Summary
  ***********************
  
  -----------------------------------------------------------
                         Flow       Avg       Max       Total
                         Freq      Flow      Flow      Volume
  Outfall Node           Pcnt       LPS       LPS    10^6 ltr
  -----------------------------------------------------------
  CC-1                  21.89    683.00    683.00       3.927
  CC-2                  18.46    683.00    683.00       3.360
  JK-1                  10.18   1000.00   1000.00       2.548
  JK-2                   3.34   1000.00   1000.00       0.587
  WSC                   99.96    272.76    554.25       5.898
  -----------------------------------------------------------
  System                30.77   3638.76   3920.25      16.320
  
  
  ********************
  Link Flow Summary
  ********************
  
  -----------------------------------------------------------------------------
                                 Maximum  Time of Max   Maximum    Max/    Max/
                                  |Flow|   Occurrence   |Veloc|    Full    Full
  Link                 Type          LPS  days hr:min     m/sec    Flow   Depth
  -----------------------------------------------------------------------------
  1                    CONDUIT    554.25     0  03:00      2.83    0.19    0.30
  WS02003060WS02003069 CONDUIT    553.14     0  02:58      1.64    0.22    0.34
  WS02003066WSF200     CONDUIT    536.72     0  02:58      2.85    0.09    0.22
  WS02003067WS02003066 CONDUIT    536.69     0  02:58      1.21    0.17    0.42
  WS02003069WS02003072 CONDUIT    553.16     0  02:59      1.37    0.27    0.39
  WS02003072WS02003073 CONDUIT    552.84     0  02:59      1.43    1.19    0.37
  WS02004401WS02004402 CONDUIT    541.03     0  02:42      0.98    0.65    0.89
  WS02004402WS02004403 CONDUIT    538.72     0  02:37      0.97    0.77    0.91
  WS02004403WS02004404 CONDUIT    558.13     0  02:56      0.92    0.40    0.96
  WS02004404WS02004405 CONDUIT    605.10     0  02:56      1.08    5.93    0.98
  WS02004405WS02004406 CONDUIT    544.26     0  02:56      0.99    1.07    0.96
  WS02004406WS02004407 CONDUIT    539.64     0  02:56      1.04    0.24    0.63
  WS02004407WS02004409 CONDUIT    538.99     0  02:56      1.60    0.19    0.48
  WS02004409WS02004410 CONDUIT    538.44     0  02:57      0.99    0.70    0.67
  WS02004410WS02004411 CONDUIT    537.88     0  02:57      0.95    0.73    0.69
  WS02004411WS02004412 CONDUIT    537.41     0  02:57      0.92    0.76    0.69
  WS02004412WS02004413 CONDUIT    537.18     0  02:57      0.82    0.36    0.78
  WS02004413WS02003067 CONDUIT    536.70     0  02:58      1.11    0.23    0.59
  WS02006109WS02006110 CONDUIT    598.77     0  02:03      1.19    1.15    1.00
  WS02006110WS02006113 CONDUIT    591.44     0  02:03      1.43    0.54    0.79
  WS02006111WS02006112 CONDUIT    545.37     0  03:20      1.81    0.26    0.67
  WS02006112WS02006115 CONDUIT    553.00     0  02:03      0.82    0.33    0.88
  WS02006113WS02006111 CONDUIT    565.18     0  03:19      2.47    0.68    0.47
  WS02006115WS02006116 CONDUIT    542.36     0  02:00      1.09    0.70    0.78
  WS02006116WS02004401 CONDUIT    539.25     0  02:27      0.98    0.74    0.86
  WS02006228WS02006109 CONDUIT    594.00     0  02:03      1.18    2.60    1.00
  WS02006229WS02006228 CONDUIT    585.68     0  02:03      1.17    1.94    1.00
  WS02006230WS02006229 CONDUIT    580.58     0  02:03      1.51   12.92    1.00
  WS02006231WS02006230 CONDUIT    590.39     0  03:27      1.63    8.96    1.00
  WS02006232WS02006231 CONDUIT    628.25     0  03:27      1.63    1.32    1.00
  WS02006234WS02006232 CONDUIT    623.17     0  03:27      1.62    1.26    1.00
  WS02006235WS02006234 CONDUIT    600.28     0  03:27      1.56    6.33    1.00
  WS02006238WS02006235 CONDUIT    427.54     0  02:00      1.56    0.95    1.00
  WS02006239WS02006238 CONDUIT    427.37     0  02:00      1.11    1.37    1.00
  WS02006240WS02006239 CONDUIT    425.78     0  02:00      1.24    1.34    1.00
  WS02006242WS02006240 CONDUIT    420.68     0  02:00      1.13    1.67    1.00
  WS02006243WS02006242 CONDUIT    420.36     0  03:20      1.40    0.90    1.00
  WS02006245WS02006243 CONDUIT    419.80     0  03:20      1.45    1.24    1.00
  WS02006247WS02006245 CONDUIT    419.38     0  02:45      1.43    3.33    1.00
  WS02006248WS02006247 CONDUIT    419.94     0  02:45      1.44    0.91    1.00
  WS02006249WS02006248 CONDUIT    421.73     0  02:00      1.37    2.31    1.00
  WS02006251WS02006249 CONDUIT    459.02     0  00:00      1.99    1.32    1.00
  WS02006252WS02006251 CONDUIT    410.01     0  03:27     24.61    1.50    1.00
  WS02006256WS02006235 CONDUIT    289.21     0  01:44      4.23    3.06    1.00
  WSF200WS02003060     CONDUIT    536.68     0  02:58      2.06    0.12    0.28
  YS02001580YS02001583 CONDUIT     72.05     0  02:05      0.48    0.28    1.00
  YS02001583YS02001586 CONDUIT    102.26     0  02:05      0.43    0.15    1.00
  YS02001586YS02001590 CONDUIT    318.36     0  02:38      1.24    0.56    1.00
  YS02001590YS02001593 CONDUIT    318.11     0  02:38      1.13    2.00    1.00
  YS02001593YS02001596 CONDUIT    318.11     0  02:17      1.73    0.50    1.00
  YS02001596YS02001600 CONDUIT    317.99     0  02:19      1.28    0.62    1.00
  YS02001600YS02001601 CONDUIT    318.02     0  02:38      1.12    0.55    1.00
  YS02001601YS02001602 CONDUIT    492.61     0  02:05      1.74    1.78    1.00
  YS02001602YS02001605 CONDUIT    492.60     0  02:05      1.74   10.42    1.00
  YS02001605YS02001607 CONDUIT    492.34     0  02:05      1.74    2.70    1.00
  YS02001607YS02001610 CONDUIT    491.34     0  02:05      0.63    0.47    1.00
  YS02001610YS02001613 CONDUIT    616.00     0  02:28      0.78    0.71    1.00
  YS02001613YS02001616 CONDUIT    615.81     0  02:27      0.78    0.53    1.00
  YS02001616YS02001619 CONDUIT    615.87     0  02:28      0.78    1.07    1.00
  YS02001619YS02001622 CONDUIT   1053.92     0  02:28      1.34    1.55    1.00
  YS02001622YS02001625 CONDUIT   1053.63     0  02:27      1.34    0.56    1.00
  YS02001625YS02001629 CONDUIT    884.20     0  02:07      1.13    0.42    1.00
  YS02001629YS02163301 CONDUIT    884.40     0  02:07      1.13    1.09    1.00
  YS02001633YS02163601 CONDUIT   1212.76     0  02:08      1.54    1.27    1.00
  YS02001641YS02001644 CONDUIT   1240.52     0  02:09      1.58    4.01    1.00
  YS02001644YS02001647 CONDUIT   1556.33     0  02:09      2.00    0.91    1.00
  YS02001647YS02001649 CONDUIT   1570.59     0  02:09      2.12    0.83    1.00
  YS02001649YS02001757 CONDUIT   1740.53     0  02:10      2.22    1.06    1.00
  YS02001652YS02001649 CONDUIT   1154.60     0  02:25      1.47    0.57    1.00
  YS02001655YS02001652 CONDUIT   1154.55     0  02:25      1.47    0.56    1.00
  YS02001658YS02001655 CONDUIT   1154.31     0  02:25      1.77    0.49    1.00
  YS02001661YS02001658 CONDUIT   1154.34     0  02:25      2.07    0.45    1.00
  YS02001664YS02001661 CONDUIT   1153.96     0  02:25      1.95    0.36    0.88
  YS02001745YS02001748 CONDUIT    716.24     0  02:25      1.91    0.28    0.98
  YS02001748YS02001751 CONDUIT    716.35     0  02:25      1.52    0.36    1.00
  YS02001751YS02001754 CONDUIT    716.71     0  02:25      1.37    0.35    1.00
  YS02001754YS02001757 CONDUIT    716.58     0  02:25      0.91    0.29    1.00
  YS02001757CaochengTiaoxuchi CONDUIT   2909.05     0  02:23      3.70    1.26    1.00
  YS02001759YS02001757 CONDUIT   1291.38     0  02:25      1.64    0.92    1.00
  YS02001762YS02001759 CONDUIT    670.64     0  02:17      0.85    0.77    1.00
  YS02001765YS02001762 CONDUIT    670.70     0  02:17      0.85    0.63    1.00
  YS02001767YS02001765 CONDUIT    670.50     0  02:17      0.85    0.84    1.00
  YS02001770YS02001767 CONDUIT    670.45     0  02:17      0.85    2.66    1.00
  YS02001774YS02001770 CONDUIT    851.05     0  02:26      1.08    0.54    1.00
  YS02001779YS02001774 CONDUIT    851.07     0  02:27      1.08    0.43    1.00
  YS02001783YS02001784 CONDUIT   1167.55     0  02:24      2.32    1.61    1.00
  YS02001784YS02001785 CONDUIT   1167.96     0  02:23      2.32    2.72    1.00
  YS02001786YS02001788 CONDUIT   1168.86     0  02:24      2.48    2.25    0.89
  YS02001788YS02001790 CONDUIT   1177.20     0  02:23      2.71    0.87    0.85
  YS02001790YS02001791 CONDUIT   1298.97     0  02:22      3.45    1.41    0.71
  YS02001791YS02001793 CONDUIT   1273.49     0  02:25      6.69    0.55    0.45
  YS02001793JiankangQianchi CONDUIT   1219.90     0  02:39      2.43    0.10    0.65
  YS02001882YS02001884 CONDUIT     29.38     0  02:09      0.15    0.03    1.00
  YS02001884YS02001887 CONDUIT     36.07     0  02:53      0.10    0.05    1.00
  YS02001887YS02001890 CONDUIT   1051.32     0  02:25      1.34    1.80    1.00
  YS02001890YS02001895 CONDUIT    517.07     0  02:29      0.66    0.24    1.00
  YS02001895YS02001898 CONDUIT    517.08     0  02:30      0.66    0.90    1.00
  YS02001898YS02001901 CONDUIT    517.25     0  02:30      0.66    0.33    1.00
  YS02001901YS02001904 CONDUIT    517.14     0  02:29      0.66    0.80    1.00
  YS02001904YS02001907 CONDUIT    517.05     0  02:30      0.66    0.18    1.00
  YS02001907YS02006553 CONDUIT    805.56     0  02:41      0.90    0.95    1.00
  YS02001910YS02001907 CONDUIT   1882.58     0  02:25      2.40    1.06    1.00
  YS02001915YS02001910 CONDUIT   1882.18     0  02:25      2.40    0.93    1.00
  YS02001918YS02001915 CONDUIT    625.60     0  02:25      0.80    0.35    1.00
  YS02001920YS02001918 CONDUIT    625.50     0  02:25      0.80    0.61    1.00
  YS02001923YS02001920 CONDUIT    621.85     0  02:25      0.79    0.28    1.00
  YS02001926YS02001923 CONDUIT    621.29     0  02:25      0.94    0.89    1.00
  YS02001929YS02001926 CONDUIT    620.80     0  02:25      1.06    0.29    1.00
  YS02006553YS02006556 CONDUIT    806.00     0  02:41      1.03    0.69    1.00
  YS02006556YS02006558 CONDUIT    808.94     0  02:41      1.03    0.64    1.00
  YS02006558YS02006561 CONDUIT   1167.82     0  02:24      4.13    2.58    1.00
  YS02006561YS02001783 CONDUIT   1167.32     0  02:24      2.32    0.60    1.00
  YS02163301YS02001633 CONDUIT    884.05     0  02:07      1.13    0.83    1.00
  YS02163601YS02164001 CONDUIT   1213.18     0  02:08      1.54    1.07    1.00
  YS02164001YS02001641 CONDUIT   1231.13     0  02:09      1.57    1.68    1.00
  CC-R1                PUMP       683.00     0  00:00              1.00
  CC-R2                PUMP       683.00     0  00:00              1.00
  CC-S1                PUMP       200.00     0  00:00              1.00
  CC-S2                PUMP       200.00     0  00:00              1.00
  JK-R1                PUMP      1000.00     0  00:00              1.00
  JK-R2                PUMP      1000.00     0  00:00              1.00
  JK-S                 PUMP       300.00     0  00:00              1.00
  
  
  ***************************
  Flow Classification Summary
  ***************************
  
  -------------------------------------------------------------------------------------
                      Adjusted    ---------- Fraction of Time in Flow Class ---------- 
                       /Actual         Up    Down  Sub   Sup   Up    Down  Norm  Inlet 
  Conduit               Length    Dry  Dry   Dry   Crit  Crit  Crit  Crit  Ltd   Ctrl  
  -------------------------------------------------------------------------------------
  1                       1.00   0.00  0.00  0.00  0.00  1.00  0.00  0.00  0.54  0.00
  WS02003060WS02003069    1.00   0.00  0.00  0.00  0.99  0.01  0.00  0.00  0.65  0.00
  WS02003066WSF200        1.00   0.13  0.00  0.00  0.00  0.87  0.00  0.00  0.74  0.00
  WS02003067WS02003066    1.00   0.10  0.02  0.00  0.88  0.00  0.00  0.00  0.00  0.00
  WS02003069WS02003072    1.00   0.00  0.00  0.00  0.99  0.01  0.00  0.00  0.68  0.00
  WS02003072WS02003073    1.00   0.00  0.00  0.00  0.00  0.00  0.00  1.00  0.00  0.00
  WS02004401WS02004402    1.00   0.02  0.00  0.00  0.98  0.00  0.00  0.00  0.00  0.00
  WS02004402WS02004403    1.00   0.02  0.00  0.00  0.97  0.00  0.00  0.00  0.00  0.00
  WS02004403WS02004404    1.00   0.00  0.03  0.00  0.97  0.00  0.00  0.00  0.00  0.00
  WS02004404WS02004405    1.00   0.00  0.00  0.00  1.00  0.00  0.00  0.00  0.01  0.00
  WS02004405WS02004406    1.00   0.00  0.00  0.00  1.00  0.00  0.00  0.00  0.00  0.00
  WS02004406WS02004407    1.00   0.00  0.05  0.00  0.95  0.00  0.00  0.00  0.00  0.00
  WS02004407WS02004409    1.00   0.05  0.00  0.00  0.94  0.01  0.00  0.00  0.94  0.00
  WS02004409WS02004410    1.00   0.05  0.00  0.00  0.95  0.00  0.00  0.00  0.03  0.00
  WS02004410WS02004411    1.00   0.05  0.00  0.00  0.95  0.00  0.00  0.00  0.01  0.00
  WS02004411WS02004412    1.00   0.05  0.00  0.00  0.95  0.00  0.00  0.00  0.00  0.00
  WS02004412WS02004413    1.00   0.05  0.00  0.00  0.94  0.00  0.00  0.00  0.01  0.00
  WS02004413WS02003067    1.00   0.06  0.04  0.00  0.00  0.00  0.90  0.00  0.00  0.00
  WS02006109WS02006110    1.00   0.00  0.01  0.00  0.98  0.00  0.01  0.00  0.00  0.00
  WS02006110WS02006113    1.00   0.01  0.01  0.00  0.98  0.00  0.00  0.00  0.00  0.00
  WS02006111WS02006112    1.00   0.02  0.00  0.00  0.98  0.00  0.00  0.00  0.98  0.00
  WS02006112WS02006115    1.00   0.02  0.00  0.00  0.97  0.00  0.00  0.00  0.00  0.00
  WS02006113WS02006111    1.00   0.02  0.00  0.00  0.00  0.98  0.00  0.00  0.14  0.00
  WS02006115WS02006116    1.00   0.02  0.00  0.00  0.97  0.00  0.00  0.01  0.00  0.00
  WS02006116WS02004401    1.00   0.02  0.00  0.00  0.98  0.00  0.00  0.00  0.00  0.00
  WS02006228WS02006109    1.00   0.00  0.00  0.00  1.00  0.00  0.00  0.00  0.00  0.00
  WS02006229WS02006228    1.00   0.00  0.00  0.00  0.99  0.00  0.00  0.01  0.00  0.00
  WS02006230WS02006229    1.00   0.00  0.00  0.00  0.99  0.00  0.00  0.01  0.00  0.00
  WS02006231WS02006230    1.00   0.00  0.00  0.00  0.31  0.00  0.69  0.00  0.00  0.00
  WS02006232WS02006231    1.00   0.00  0.00  0.00  0.99  0.00  0.01  0.00  0.00  0.00
  WS02006234WS02006232    1.00   0.00  0.00  0.00  1.00  0.00  0.00  0.00  0.25  0.00
  WS02006235WS02006234    1.00   0.00  0.00  0.00  0.70  0.00  0.30  0.00  0.00  0.00
  WS02006238WS02006235    1.00   0.00  0.00  0.00  1.00  0.00  0.00  0.00  0.00  0.00
  WS02006239WS02006238    1.00   0.00  0.00  0.00  1.00  0.00  0.00  0.00  0.33  0.00
  WS02006240WS02006239    1.00   0.00  0.00  0.00  0.59  0.00  0.00  0.41  0.02  0.00
  WS02006242WS02006240    1.00   0.00  0.00  0.00  0.99  0.00  0.01  0.00  0.00  0.00
  WS02006243WS02006242    1.00   0.00  0.00  0.00  0.98  0.00  0.00  0.01  0.49  0.00
  WS02006245WS02006243    1.00   0.00  0.00  0.00  0.69  0.00  0.00  0.31  0.01  0.00
  WS02006247WS02006245    1.00   0.00  0.00  0.00  0.98  0.00  0.00  0.02  0.00  0.00
  WS02006248WS02006247    1.00   0.00  0.00  0.00  0.99  0.00  0.00  0.01  0.23  0.00
  WS02006249WS02006248    1.00   0.00  0.00  0.00  0.51  0.00  0.49  0.00  0.00  0.00
  WS02006251WS02006249    1.00   0.00  0.00  0.00  0.99  0.01  0.00  0.00  0.51  0.00
  WS02006252WS02006251    1.00   0.00  0.54  0.00  0.14  0.00  0.32  0.00  0.00  0.00
  WS02006256WS02006235    1.00   0.00  0.00  0.00  1.00  0.00  0.00  0.00  0.00  0.00
  WSF200WS02003060        1.00   0.00  0.13  0.00  0.33  0.55  0.00  0.00  0.46  0.00
  YS02001580YS02001583    1.00   0.25  0.53  0.00  0.22  0.00  0.00  0.00  0.62  0.00
  YS02001583YS02001586    1.00   0.40  0.33  0.00  0.27  0.00  0.00  0.00  0.62  0.00
  YS02001586YS02001590    1.00   0.13  0.00  0.00  0.47  0.04  0.00  0.37  0.37  0.00
  YS02001590YS02001593    1.00   0.13  0.01  0.00  0.14  0.00  0.72  0.00  0.00  0.00
  YS02001593YS02001596    1.00   0.13  0.00  0.00  0.16  0.01  0.00  0.70  0.02  0.00
  YS02001596YS02001600    1.00   0.13  0.00  0.00  0.23  0.01  0.00  0.63  0.05  0.00
  YS02001600YS02001601    1.00   0.13  0.01  0.00  0.86  0.00  0.00  0.00  0.58  0.00
  YS02001601YS02001602    1.00   0.13  0.01  0.00  0.87  0.00  0.00  0.00  0.00  0.00
  YS02001602YS02001605    1.00   0.13  0.00  0.00  0.87  0.00  0.00  0.00  0.00  0.00
  YS02001605YS02001607    1.00   0.13  0.00  0.00  0.87  0.00  0.00  0.00  0.00  0.00
  YS02001607YS02001610    1.00   0.13  0.01  0.00  0.86  0.00  0.00  0.00  0.01  0.00
  YS02001610YS02001613    1.00   0.13  0.00  0.00  0.87  0.00  0.00  0.00  0.00  0.00
  YS02001613YS02001616    1.00   0.13  0.00  0.00  0.87  0.00  0.00  0.00  0.00  0.00
  YS02001616YS02001619    1.00   0.13  0.00  0.00  0.87  0.00  0.00  0.00  0.00  0.00
  YS02001619YS02001622    1.00   0.13  0.00  0.00  0.87  0.00  0.00  0.00  0.27  0.00
  YS02001622YS02001625    1.00   0.13  0.00  0.00  0.87  0.00  0.00  0.00  0.03  0.00
  YS02001625YS02001629    1.00   0.13  0.04  0.00  0.20  0.00  0.63  0.00  0.00  0.00
  YS02001629YS02163301    1.00   0.15  0.01  0.00  0.84  0.00  0.00  0.00  0.00  0.00
  YS02001633YS02163601    1.00   0.00  0.01  0.00  0.99  0.00  0.00  0.00  0.14  0.00
  YS02001641YS02001644    1.00   0.00  0.01  0.00  0.99  0.00  0.00  0.00  0.00  0.00
  YS02001644YS02001647    1.00   0.00  0.16  0.00  0.84  0.00  0.00  0.00  0.00  0.00
  YS02001647YS02001649    1.00   0.00  0.16  0.00  0.60  0.23  0.00  0.00  0.57  0.00
  YS02001649YS02001757    1.00   0.00  0.00  0.00  0.85  0.15  0.00  0.00  0.43  0.00
  YS02001652YS02001649    1.00   0.00  0.00  0.00  0.97  0.03  0.00  0.00  0.69  0.00
  YS02001655YS02001652    1.00   0.00  0.00  0.00  0.23  0.02  0.00  0.75  0.06  0.00
  YS02001658YS02001655    1.00   0.00  0.14  0.00  0.69  0.17  0.00  0.00  0.66  0.00
  YS02001661YS02001658    1.00   0.14  0.00  0.00  0.53  0.33  0.00  0.00  0.66  0.00
  YS02001664YS02001661    1.00   0.13  0.00  0.00  0.79  0.08  0.00  0.00  0.83  0.00
  YS02001745YS02001748    1.00   0.00  0.00  0.00  0.14  0.00  0.00  0.86  0.04  0.00
  YS02001748YS02001751    1.00   0.00  0.00  0.00  0.85  0.15  0.00  0.00  0.72  0.00
  YS02001751YS02001754    1.00   0.00  0.00  0.00  0.20  0.01  0.00  0.79  0.03  0.00
  YS02001754YS02001757    1.00   0.00  0.00  0.00  1.00  0.00  0.00  0.00  0.76  0.00
  YS02001757CaochengTiaoxuchi    1.00   0.00  0.00  0.00  1.00  0.00  0.00  0.00  0.55  0.00
  YS02001759YS02001757    1.00   0.00  0.00  0.00  0.99  0.01  0.00  0.00  0.48  0.00
  YS02001762YS02001759    1.00   0.00  0.00  0.00  1.00  0.00  0.00  0.00  0.05  0.00
  YS02001765YS02001762    1.00   0.00  0.00  0.00  1.00  0.00  0.00  0.00  0.61  0.00
  YS02001767YS02001765    1.00   0.00  0.00  0.00  1.00  0.00  0.00  0.00  0.01  0.00
  YS02001770YS02001767    1.00   0.00  0.00  0.00  1.00  0.00  0.00  0.00  0.00  0.00
  YS02001774YS02001770    1.00   0.00  0.13  0.00  0.71  0.00  0.16  0.00  0.03  0.00
  YS02001779YS02001774    1.00   0.00  0.00  0.00  1.00  0.00  0.00  0.00  0.72  0.00
  YS02001783YS02001784    1.00   0.00  0.17  0.00  0.83  0.00  0.00  0.00  0.54  0.00
  YS02001784YS02001785    1.00   0.00  0.00  0.00  1.00  0.00  0.00  0.00  0.16  0.00
  YS02001786YS02001788    1.00   0.00  0.00  0.00  0.79  0.21  0.00  0.00  0.00  0.00
  YS02001788YS02001790    1.00   0.00  0.00  0.00  0.22  0.78  0.00  0.00  0.78  0.00
  YS02001790YS02001791    1.00   0.00  0.00  0.00  0.01  0.99  0.00  0.00  0.16  0.00
  YS02001791YS02001793    1.00   0.00  0.00  0.00  0.00  1.00  0.00  0.00  0.01  0.00
  YS02001793JiankangQianchi    1.00   0.00  0.00  0.00  0.99  0.01  0.00  0.00  0.94  0.00
  YS02001882YS02001884    1.00   0.15  0.01  0.00  0.85  0.00  0.00  0.00  0.00  0.00
  YS02001884YS02001887    1.00   0.06  0.05  0.00  0.89  0.00  0.00  0.00  0.00  0.00
  YS02001887YS02001890    1.00   0.00  0.00  0.00  0.97  0.00  0.03  0.00  0.00  0.00
  YS02001890YS02001895    1.00   0.00  0.15  0.00  0.84  0.00  0.00  0.00  0.00  0.00
  YS02001895YS02001898    1.00   0.16  0.00  0.00  0.82  0.00  0.02  0.00  0.00  0.00
  YS02001898YS02001901    1.00   0.16  0.00  0.00  0.84  0.00  0.00  0.00  0.01  0.00
  YS02001901YS02001904    1.00   0.16  0.00  0.00  0.84  0.00  0.00  0.00  0.00  0.00
  YS02001904YS02001907    1.00   0.00  0.16  0.00  0.84  0.00  0.00  0.00  0.00  0.00
  YS02001907YS02006553    1.00   0.00  0.02  0.00  0.98  0.00  0.00  0.00  0.00  0.00
  YS02001910YS02001907    1.00   0.00  0.00  0.00  0.97  0.00  0.00  0.03  0.12  0.00
  YS02001915YS02001910    1.00   0.00  0.00  0.00  0.97  0.03  0.00  0.00  0.14  0.00
  YS02001918YS02001915    1.00   0.00  0.01  0.00  0.98  0.02  0.00  0.00  0.72  0.00
  YS02001920YS02001918    1.00   0.00  0.01  0.00  0.99  0.00  0.00  0.00  0.00  0.00
  YS02001923YS02001920    1.00   0.00  0.00  0.00  1.00  0.00  0.00  0.00  0.90  0.00
  YS02001926YS02001923    1.00   0.00  0.07  0.00  0.08  0.00  0.85  0.00  0.00  0.00
  YS02001929YS02001926    1.00   0.00  0.13  0.00  0.87  0.00  0.00  0.00  0.81  0.00
  YS02006553YS02006556    1.00   0.01  0.00  0.00  0.99  0.00  0.00  0.00  0.03  0.00
  YS02006556YS02006558    1.00   0.00  0.00  0.00  1.00  0.00  0.00  0.00  0.00  0.00
  YS02006558YS02006561    1.00   0.17  0.00  0.00  0.07  0.76  0.00  0.00  0.18  0.00
  YS02006561YS02001783    1.00   0.17  0.00  0.00  0.11  0.72  0.00  0.00  0.66  0.00
  YS02163301YS02001633    1.00   0.00  0.15  0.00  0.85  0.00  0.00  0.00  0.00  0.00
  YS02163601YS02164001    1.00   0.00  0.08  0.00  0.92  0.00  0.00  0.00  0.00  0.00
  YS02164001YS02001641    1.00   0.01  0.07  0.00  0.92  0.00  0.00  0.00  0.05  0.00
  
  
  *************************
  Conduit Surcharge Summary
  *************************
  
  ----------------------------------------------------------------------------
                                                           Hours        Hours 
                         --------- Hours Full --------   Above Full   Capacity
  Conduit                Both Ends  Upstream  Dnstream   Normal Flow   Limited
  ----------------------------------------------------------------------------
  WS02003072WS02003073        0.01      0.01      0.01      1.56         0.01
  WS02004403WS02004404        0.01      0.01      0.01      0.01         0.01
  WS02004404WS02004405        0.01      0.01      0.01      3.74         0.01
  WS02004405WS02004406        0.01      0.01      0.01      0.85         0.01
  WS02006109WS02006110        0.82      0.82      2.45      0.99         0.01
  WS02006110WS02006113        0.01      0.01      2.45      0.01         0.01
  WS02006111WS02006112        0.01      0.01      2.58      0.01         0.01
  WS02006112WS02006115        0.01      0.01      1.14      0.01         0.01
  WS02006228WS02006109        2.43      2.45      2.43      2.82         2.43
  WS02006229WS02006228        2.43      2.43      2.43      2.57         2.42
  WS02006230WS02006229        2.47      2.51      2.47      4.28         2.47
  WS02006231WS02006230        0.82      0.82      1.10      4.00         0.01
  WS02006232WS02006231        1.03      1.03      2.47      1.12         0.01
  WS02006234WS02006232        2.37      2.37      2.47      1.09         1.07
  WS02006235WS02006234        1.49      1.50      2.39      3.81         0.03
  WS02006238WS02006235        2.41      2.41      2.47      0.01         0.01
  WS02006239WS02006238        2.44      2.46      2.45      2.36         2.09
  WS02006240WS02006239        2.41      2.44      2.42      2.36         1.99
  WS02006242WS02006240        2.44      2.44      2.46      2.50         0.01
  WS02006243WS02006242        2.35      2.35      2.45      0.01         0.07
  WS02006245WS02006243        2.33      2.33      2.34      1.50         1.50
  WS02006247WS02006245        2.33      2.33      2.33      3.60         2.31
  WS02006248WS02006247        2.32      2.32      2.33      0.01         0.07
  WS02006249WS02006248        2.31      2.32      2.31      3.56         0.01
  WS02006251WS02006249        2.31      2.32      2.31      2.45         2.22
  WS02006252WS02006251        2.49      2.49      2.49      2.49         0.01
  WS02006256WS02006235        3.85      3.91      5.33      1.46         0.01
  YS02001580YS02001583        0.78      0.78      0.86      0.01         0.01
  YS02001583YS02001586        0.80      0.80      0.94      0.01         0.01
  YS02001586YS02001590        0.95      0.95      1.02      0.01         0.01
  YS02001590YS02001593        1.01      1.01      1.04      1.01         0.01
  YS02001593YS02001596        1.03      1.03      1.14      0.01         0.01
  YS02001596YS02001600        1.20      1.20      1.30      0.01         0.01
  YS02001600YS02001601        1.36      1.36      1.66      0.01         0.01
  YS02001601YS02001602        1.55      1.55      1.70      1.30         0.01
  YS02001602YS02001605        1.50      1.50      1.55      2.51         0.01
  YS02001605YS02001607        1.45      1.50      1.46      1.59         1.42
  YS02001607YS02001610        1.01      1.01      1.03      0.01         0.01
  YS02001610YS02001613        1.01      1.01      1.03      0.01         0.01
  YS02001613YS02001616        0.97      0.97      1.01      0.01         0.01
  YS02001616YS02001619        0.96      0.96      0.97      0.08         0.08
  YS02001619YS02001622        0.96      0.96      0.96      0.99         0.87
  YS02001622YS02001625        0.96      0.96      1.13      0.01         0.01
  YS02001625YS02001629        0.90      0.90      1.13      0.01         0.01
  YS02001629YS02163301        1.13      1.13      1.15      0.08         0.09
  YS02001633YS02163601        1.17      1.17      1.21      0.21         0.22
  YS02001641YS02001644        1.08      1.11      1.08      1.75         1.06
  YS02001644YS02001647        0.90      0.90      1.08      0.01         0.01
  YS02001647YS02001649        0.90      0.90      1.02      0.01         0.01
  YS02001649YS02001757        1.02      1.02      1.09      0.02         0.04
  YS02001652YS02001649        0.88      0.88      1.02      0.01         0.01
  YS02001655YS02001652        0.69      0.69      0.86      0.01         0.01
  YS02001658YS02001655        0.39      0.39      0.69      0.01         0.01
  YS02001661YS02001658        0.12      0.12      0.39      0.01         0.01
  YS02001664YS02001661        0.01      0.01      0.18      0.01         0.01
  YS02001745YS02001748        0.01      0.01      0.33      0.01         0.01
  YS02001748YS02001751        0.36      0.36      0.55      0.01         0.01
  YS02001751YS02001754        0.55      0.55      0.79      0.01         0.01
  YS02001754YS02001757        0.83      0.83      1.09      0.01         0.01
  YS02001757CaochengTiaoxuchi        1.09      1.09      2.27      0.44         0.44
  YS02001759YS02001757        1.01      1.01      1.09      0.01         0.01
  YS02001762YS02001759        0.98      0.98      1.01      0.01         0.01
  YS02001765YS02001762        0.94      0.94      0.98      0.01         0.01
  YS02001767YS02001765        0.92      0.92      0.94      0.01         0.01
  YS02001770YS02001767        0.91      0.91      0.92      0.58         0.53
  YS02001774YS02001770        0.89      0.89      0.97      0.01         0.01
  YS02001779YS02001774        0.77      0.77      0.97      0.01         0.01
  YS02001783YS02001784        0.64      0.67      0.64      0.87         0.64
  YS02001784YS02001785        0.52      0.64      0.52      1.16         0.52
  YS02001786YS02001788        0.01      0.52      0.01      1.02         0.01
  YS02001790YS02001791        0.01      0.01      0.01      0.63         0.01
  YS02001793JiankangQianchi        0.01      0.01      7.70      0.01         0.01
  YS02001882YS02001884        0.61      0.61      0.62      0.01         0.01
  YS02001884YS02001887        0.64      0.64      0.66      0.01         0.01
  YS02001887YS02001890        0.67      0.67      0.69      0.18         0.01
  YS02001890YS02001895        0.59      0.59      0.71      0.01         0.01
  YS02001895YS02001898        0.59      0.59      0.59      0.01         0.01
  YS02001898YS02001901        0.60      0.60      0.64      0.01         0.01
  YS02001901YS02001904        0.63      0.63      0.64      0.01         0.01
  YS02001904YS02001907        0.63      0.63      0.98      0.01         0.01
  YS02001907YS02006553        1.17      1.17      1.25      0.01         0.01
  YS02001910YS02001907        0.71      0.71      0.96      0.05         0.05
  YS02001915YS02001910        0.60      0.60      0.71      0.01         0.01
  YS02001918YS02001915        0.51      0.51      0.60      0.01         0.01
  YS02001920YS02001918        0.51      0.51      0.52      0.01         0.01
  YS02001923YS02001920        0.46      0.46      0.52      0.01         0.01
  YS02001926YS02001923        0.19      0.19      0.21      0.01         0.01
  YS02001929YS02001926        0.07      0.07      0.21      0.01         0.01
  YS02006553YS02006556        0.82      0.82      0.99      0.01         0.01
  YS02006556YS02006558        0.91      0.91      1.01      0.01         0.01
  YS02006558YS02006561        0.54      0.80      0.54      1.11         0.54
  YS02006561YS02001783        0.47      0.47      0.67      0.01         0.01
  YS02163301YS02001633        1.15      1.15      1.19      0.01         0.01
  YS02163601YS02164001        1.12      1.12      1.21      0.08         0.01
  YS02164001YS02001641        1.11      1.12      1.11      0.68         0.59
  
  
  ***************
  Pumping Summary
  ***************
  
  ---------------------------------------------------------------------------------------------------------
                                                  Min       Avg       Max     Total     Power    % Time Off
                        Percent   Number of      Flow      Flow      Flow    Volume     Usage    Pump Curve
  Pump                 Utilized   Start-Ups       LPS       LPS       LPS  10^6 ltr     Kw-hr    Low   High
  ---------------------------------------------------------------------------------------------------------
  CC-R1                   19.96           2      0.00    683.00    683.00     3.926     75.90    0.0    5.2
  CC-R2                   17.08           2      0.00    683.00    683.00     3.359     65.45    0.0    6.1
  CC-S1                   45.88           6      0.00    200.00    200.00     2.643     14.64    0.0    0.0
  CC-S2                   31.09           3      0.00    200.00    200.00     1.791      9.52    0.0    0.0
  JK-R1                    8.84          14      0.00   1000.00   1000.00     2.546     30.13    0.0    0.0
  JK-R2                    2.04           5      0.00   1000.00   1000.00     0.587      5.32    0.0    0.0
  JK-S                    18.29          19      0.00    300.00    300.00     1.580     22.41    0.0    0.0
  

  Analysis begun on:  Tue Apr 15 14:19:01 2025
  Analysis ended on:  Tue Apr 15 14:19:03 2025
  Total elapsed time: 00:00:02