
  EPA STORM WATER MANAGEMENT MODEL - VERSION 5.2 (Build 5.2.4)
  PYSWMM TOOLKIT API - VERSION v1.0 (2023-11-27)
  ------------------------------------------------------------

  
  ****************
  Analysis Options
  ****************
  Flow Units ............... CMS
  Process Models:
    Rainfall/Runoff ........ YES
    RDII ................... NO
    Snowmelt ............... NO
    Groundwater ............ NO
    Flow Routing ........... YES
    Ponding Allowed ........ YES
    Water Quality .......... NO
  Infiltration Method ...... HORTON
  Flow Routing Method ...... DYNWAVE
  Surcharge Method ......... EXTRAN
  Starting Date ............ 01/01/2000 08:00:00
  Ending Date .............. 01/01/2000 16:00:00
  Antecedent Dry Days ...... 0.0
  Report Time Step ......... 00:05:00
  Wet Time Step ............ 00:05:00
  Dry Time Step ............ 00:05:00
  Routing Time Step ........ 30.00 sec
  Variable Time Step ....... YES
  Maximum Trials ........... 8
  Number of Threads ........ 1
  Head Tolerance ........... 0.001500 m
  
  
  **************************        Volume         Depth
  Runoff Quantity Continuity     hectare-m            mm
  **************************     ---------       -------
  Total Precipitation ......         4.240        23.530
  Evaporation Loss .........         0.000         0.000
  Infiltration Loss ........         0.000         0.000
  Surface Runoff ...........         4.295        23.834
  Final Storage ............         0.024         0.132
  Continuity Error (%) .....        -1.848
  
  
  **************************        Volume        Volume
  Flow Routing Continuity        hectare-m      10^6 ltr
  **************************     ---------     ---------
  Dry Weather Inflow .......         0.399         3.989
  Wet Weather Inflow .......         4.294        42.942
  Groundwater Inflow .......         0.000         0.000
  RDII Inflow ..............         0.000         0.000
  External Inflow ..........         0.000         0.000
  External Outflow .........         0.634         6.339
  Flooding Loss ............         2.996        29.957
  Evaporation Loss .........         0.000         0.000
  Exfiltration Loss ........         0.000         0.000
  Initial Stored Volume ....         0.000         0.000
  Final Stored Volume ......         0.810         8.099
  Continuity Error (%) .....         5.403
  
  
  *************************
  Highest Continuity Errors
  *************************
  Node T5 (15.59%)
  Node T3 (11.61%)
  Node T2 (11.03%)
  Node T4 (10.06%)
  Node T6 (9.62%)
  
  
  ***************************
  Time-Step Critical Elements
  ***************************
  Link C15 (52.58%)
  
  
  ********************************
  Highest Flow Instability Indexes
  ********************************
  Link C13 (10)
  Link C19 (5)
  Link C5 (5)
  Link C23 (5)
  Link C12 (5)
  
  
  *********************************
  Most Frequent Nonconverging Nodes
  *********************************
  Node Out_to_WWTP (5.39%)
  Node CSO7 (2.42%)
  Node J4 (2.19%)
  Node CSO9 (2.03%)
  Node CSO8 (0.47%)
  
  
  *************************
  Routing Time Step Summary
  *************************
  Minimum Time Step           :     0.10 sec
  Average Time Step           :    22.27 sec
  Maximum Time Step           :    30.00 sec
  % of Time in Steady State   :     0.00
  Average Iterations per Step :     3.27
  % of Steps Not Converging   :     5.39
  Time Step Frequencies       :
     30.000 - 13.228 sec      :    66.12 %
     13.228 -  5.833 sec      :    33.49 %
      5.833 -  2.572 sec      :     0.00 %
      2.572 -  1.134 sec      :     0.23 %
      1.134 -  0.500 sec      :     0.16 %
  
  
  ***************************
  Subcatchment Runoff Summary
  ***************************
  
  ------------------------------------------------------------------------------------------------------------------------------
                            Total      Total      Total      Total     Imperv       Perv      Total       Total     Peak  Runoff
                           Precip      Runon       Evap      Infil     Runoff     Runoff     Runoff      Runoff   Runoff   Coeff
  Subcatchment                 mm         mm         mm         mm         mm         mm         mm    10^6 ltr      CMS
  ------------------------------------------------------------------------------------------------------------------------------
  SC01                      12.41       0.00       0.00       0.00      12.55       0.00      12.55        4.14     2.10   1.011
  SC02                      32.82       0.00       0.00       0.00      33.36       0.00      33.36        7.59     3.49   1.017
  SC03                      35.41       0.00       0.00       0.00      36.56       0.00      36.56        6.58     2.74   1.032
  SC04                      32.82       0.00       0.00       0.00      32.97       0.00      32.97        2.27     0.67   1.005
  SC05                      12.41       0.00       0.00       0.00      12.52       0.00      12.52        1.95     0.93   1.009
  SC06                      18.59       0.00       0.00       0.00      18.48       0.00      18.48        6.01     1.86   0.994
  SC07                      32.82       0.00       0.00       0.00      32.97       0.00      32.97        1.57     0.47   1.005
  SC08                      35.41       0.00       0.00       0.00      35.98       0.00      35.98       10.07     3.04   1.016
  SC09                      18.59       0.00       0.00       0.00      18.67       0.00      18.67        1.29     0.51   1.004
  SC010                     12.41       0.00       0.00       0.00      12.46       0.00      12.46        1.46     0.59   1.004
  
  
  ******************
  Node Depth Summary
  ******************
  
  ---------------------------------------------------------------------------------
                                 Average  Maximum  Maximum  Time of Max    Reported
                                   Depth    Depth      HGL   Occurrence   Max Depth
  Node                 Type       Meters   Meters   Meters  days hr:min      Meters
  ---------------------------------------------------------------------------------
  J1                   JUNCTION     0.10     0.32    34.32     0  01:10        0.31
  J3                   JUNCTION     0.11     0.14    18.14     0  02:40        0.14
  CSO7                 JUNCTION     0.51     1.20    35.20     0  01:04        1.20
  J5                   JUNCTION     0.12     0.29    32.29     0  02:30        0.28
  CSO9                 JUNCTION     0.65     2.00    42.00     0  01:03        2.00
  J8                   JUNCTION     0.18     0.46    36.46     0  01:15        0.46
  CSO8                 JUNCTION     0.78     2.00    34.00     0  01:01        2.00
  J10                  JUNCTION     0.19     0.54    29.54     0  01:05        0.51
  J13                  JUNCTION     0.13     0.48    29.48     0  01:10        0.47
  J15                  JUNCTION     0.21     0.48    15.48     0  01:13        0.47
  J16                  JUNCTION     0.10     0.35    30.35     0  01:10        0.33
  CSO10                JUNCTION     0.28     1.00    31.00     0  01:06        1.00
  J12                  JUNCTION     0.78     1.27    27.27     0  02:22        1.17
  J4                   JUNCTION     0.30     0.88    33.88     0  02:24        0.75
  J6                   JUNCTION     0.06     0.07    25.07     0  02:55        0.07
  J2                   JUNCTION     0.07     0.08    25.08     0  03:37        0.08
  J19                  JUNCTION     0.15     0.17     8.17     0  01:28        0.17
  J9                   JUNCTION     0.09     0.11    29.11     0  01:55        0.11
  J14                  JUNCTION     0.12     0.15    20.15     0  04:13        0.15
  J17                  JUNCTION     0.06     0.08    20.08     0  04:50        0.08
  J7                   JUNCTION     0.13     0.23    39.23     0  01:31        0.23
  J11                  JUNCTION     0.16     0.30    31.30     0  03:05        0.30
  J18                  JUNCTION     0.08     0.16    29.16     0  01:24        0.16
  Out_to_WWTP          OUTFALL      0.15     0.17     6.17     0  04:10        0.17
  T5                   STORAGE      4.00     5.00    32.00     0  02:23        5.00
  T4                   STORAGE      4.19     5.00    32.00     0  01:32        5.00
  T6                   STORAGE      4.29     5.00    36.00     0  01:20        5.00
  T3                   STORAGE      4.10     5.00    27.00     0  02:20        5.00
  T2                   STORAGE      4.32     5.00    26.00     0  01:17        5.00
  T1                   STORAGE      4.03     5.00    15.00     0  01:26        5.00
  
  
  *******************
  Node Inflow Summary
  *******************
  
  -------------------------------------------------------------------------------------------------
                                  Maximum  Maximum                  Lateral       Total        Flow
                                  Lateral    Total  Time of Max      Inflow      Inflow     Balance
                                   Inflow   Inflow   Occurrence      Volume      Volume       Error
  Node                 Type           CMS      CMS  days hr:min    10^6 ltr    10^6 ltr     Percent
  -------------------------------------------------------------------------------------------------
  J1                   JUNCTION     0.949    0.949     0  01:10        2.52        2.52      -0.013
  J3                   JUNCTION     0.000    0.192     0  03:53           0        3.91       0.757
  CSO7                 JUNCTION     0.476    0.476     0  02:30        1.86        1.86       0.022
  J5                   JUNCTION     0.679    0.754     0  02:30         2.4        3.28       0.023
  CSO9                 JUNCTION     0.521    0.521     0  01:10        1.49        1.49       0.037
  J8                   JUNCTION     1.891    2.016     0  01:15        6.97        8.03       0.023
  CSO8                 JUNCTION     3.045    3.045     0  02:45        10.4        10.4      -0.050
  J10                  JUNCTION     2.754    3.119     0  01:05        6.96        10.9      -0.067
  J13                  JUNCTION     3.503    3.503     0  01:10        8.06        8.06      -0.158
  J15                  JUNCTION     0.000    2.323     0  01:10           0        10.5       0.660
  J16                  JUNCTION     2.119    2.119     0  01:10         4.7         4.7      -0.110
  CSO10                JUNCTION     0.591    0.591     0  01:10        1.61        1.61      -0.037
  J12                  JUNCTION     0.000    3.105     0  01:06           0        12.5       5.914
  J4                   JUNCTION     0.000    0.085     0  01:06           0        0.88       0.324
  J6                   JUNCTION     0.000    0.028     0  01:32           0       0.555       0.716
  J2                   JUNCTION     0.000    0.039     0  02:23           0       0.938       0.544
  J19                  JUNCTION     0.000    0.271     0  01:27           0        6.35       0.179
  J9                   JUNCTION     0.000    0.075     0  01:30           0        1.39       1.254
  J14                  JUNCTION     0.000    0.124     0  02:21           0        2.43       0.204
  J17                  JUNCTION     0.000    0.033     0  01:20           0        0.61       0.758
  J7                   JUNCTION     0.000    0.127     0  01:31           0        1.07       0.305
  J11                  JUNCTION     0.000    0.487     0  03:05           0        3.97       0.286
  J18                  JUNCTION     0.000    0.202     0  01:24           0        1.32       0.017
  Out_to_WWTP          OUTFALL      0.000    0.271     0  01:28           0        6.34       0.000
  T5                   STORAGE      0.000    0.928     0  01:10           0        2.52      18.476
  T4                   STORAGE      0.000    0.744     0  02:30           0        3.28      11.185
  T6                   STORAGE      0.000    1.997     0  01:15           0        8.03      10.642
  T3                   STORAGE      0.000    3.901     0  02:25           0        11.8      13.130
  T2                   STORAGE      0.000    3.438     0  01:10           0        8.07      12.395
  T1                   STORAGE      0.000    1.980     0  01:13           0        10.4       6.167
  
  
  **********************
  Node Surcharge Summary
  **********************
  
  Surcharging occurs when water rises above the top of the highest conduit.
  ---------------------------------------------------------------------
                                               Max. Height   Min. Depth
                                   Hours       Above Crown    Below Rim
  Node                 Type      Surcharged         Meters       Meters
  ---------------------------------------------------------------------
  CSO7                 JUNCTION        1.94          0.945        0.000
  CSO9                 JUNCTION        1.63          1.682        0.000
  CSO8                 JUNCTION        1.74          1.547        0.000
  CSO10                JUNCTION        0.82          0.560        0.000
  J4                   JUNCTION        1.86          0.585        1.115
  
  
  *********************
  Node Flooding Summary
  *********************
  
  Flooding refers to all water that overflows a node, whether it ponds or not.
  --------------------------------------------------------------------------
                                                             Total   Maximum
                                 Maximum   Time of Max       Flood    Ponded
                        Hours       Rate    Occurrence      Volume     Depth
  Node                 Flooded       CMS   days hr:min    10^6 ltr    Meters
  --------------------------------------------------------------------------
  CSO7                    1.74     0.398      0  02:30       0.979     0.000
  CSO9                    1.07     0.395      0  01:10       0.415     0.000
  CSO8                    1.52     2.557      0  02:45       6.397     0.000
  CSO10                   0.68     0.386      0  01:10       0.286     0.000
  T5                      1.56     0.450      0  02:30       0.791     0.000
  T4                      3.81     0.715      0  02:30       1.934     0.000
  T6                      4.08     1.489      0  01:20       5.299     0.000
  T3                      1.59     3.776      0  02:25       5.261     0.000
  T2                      3.22     3.089      0  02:30       5.614     0.000
  T1                      2.50     1.076      0  02:33       2.966     0.000
  
  
  **********************
  Storage Volume Summary
  **********************
  
  ------------------------------------------------------------------------------------------------
                         Average    Avg   Evap  Exfil     Maximum    Max    Time of Max    Maximum
                          Volume   Pcnt   Pcnt   Pcnt      Volume   Pcnt     Occurrence    Outflow
  Storage Unit           1000 m³   Full   Loss   Loss     1000 m³   Full    days hr:min        CMS
  ------------------------------------------------------------------------------------------------
  T5                       0.400   79.9    0.0    0.0       0.500  100.0       0  02:23      0.039
  T4                       0.419   83.9    0.0    0.0       0.500  100.0       0  01:32      0.028
  T6                       0.515   85.9    0.0    0.0       0.600  100.0       0  01:20      0.075
  T3                       2.132   82.0    0.0    0.0       2.600  100.0       0  02:20      0.403
  T2                       0.863   86.3    0.0    0.0       1.000  100.0       0  01:17      0.033
  T1                       0.564   80.6    0.0    0.0       0.700  100.0       0  01:26      0.271
  
  
  ***********************
  Outfall Loading Summary
  ***********************
  
  -----------------------------------------------------------
                         Flow       Avg       Max       Total
                         Freq      Flow      Flow      Volume
  Outfall Node           Pcnt       CMS       CMS    10^6 ltr
  -----------------------------------------------------------
  Out_to_WWTP           99.14     0.230     0.271       6.339
  -----------------------------------------------------------
  System                99.14     0.230     0.271       6.339
  
  
  ********************
  Link Flow Summary
  ********************
  
  -----------------------------------------------------------------------------
                                 Maximum  Time of Max   Maximum    Max/    Max/
                                  |Flow|   Occurrence   |Veloc|    Full    Full
  Link                 Type          CMS  days hr:min     m/sec    Flow   Depth
  -----------------------------------------------------------------------------
  C1                   CONDUIT     0.039     0  03:08      1.05    0.01    0.11
  C6                   CONDUIT     0.076     0  02:28      1.29    1.21    0.98
  C2                   CONDUIT     0.028     0  02:55      1.05    0.03    0.18
  C9                   CONDUIT     0.127     0  01:31      1.26    0.43    0.69
  C16                  CONDUIT     0.486     0  02:57      1.85    0.05    0.20
  C3                   CONDUIT     0.125     0  05:53      1.89    0.05    0.14
  C19                  CONDUIT     0.033     0  04:50      0.65    0.01    0.27
  C11                  CONDUIT     0.191     0  02:40      1.78    0.01    0.14
  C20                  CONDUIT     2.069     0  01:10      5.07    0.06    0.20
  C22                  CONDUIT     0.202     0  01:24      1.67    0.09    0.40
  C12                  CONDUIT     0.075     0  01:55      0.58    0.01    0.34
  C17                  CONDUIT     3.088     0  01:06      4.88    0.15    0.44
  C10                  CONDUIT     1.997     0  01:15      1.78    0.21    0.65
  C13                  CONDUIT     3.901     0  02:25      4.11    0.23    0.82
  C18                  CONDUIT     3.438     0  01:10      3.36    0.13    0.62
  C23                  CONDUIT     1.980     0  01:13      2.54    0.22    0.66
  C4                   CONDUIT     0.928     0  01:10      3.06    0.23    0.66
  C7                   CONDUIT     0.744     0  02:30      1.71    0.18    0.64
  C14                  CONDUIT     0.271     0  01:28      2.08    0.02    0.09
  C5                   CONDUIT     0.085     0  01:06      1.74    1.46    1.00
  C8                   CONDUIT     0.127     0  01:31      1.99    1.60    0.86
  C15                  CONDUIT     0.487     0  03:05      4.02    1.55    0.83
  C21                  CONDUIT     0.202     0  01:24      1.89    1.16    0.69
  V4                   ORIFICE     0.028     0  01:32                      0.35
  V5                   ORIFICE     0.039     0  02:23                      1.00
  V1                   ORIFICE     0.271     0  01:27                      1.00
  V6                   ORIFICE     0.075     0  01:30                      0.43
  V3                   ORIFICE     0.124     0  02:21                      0.65
  V2                   ORIFICE     0.033     0  01:20                      0.24
  
  
  ***************************
  Flow Classification Summary
  ***************************
  
  -------------------------------------------------------------------------------------
                      Adjusted    ---------- Fraction of Time in Flow Class ---------- 
                       /Actual         Up    Down  Sub   Sup   Up    Down  Norm  Inlet 
  Conduit               Length    Dry  Dry   Dry   Crit  Crit  Crit  Crit  Ltd   Ctrl  
  -------------------------------------------------------------------------------------
  C1                      1.00   0.00  0.00  0.00  0.08  0.92  0.00  0.00  0.94  0.00
  C6                      1.00   0.00  0.00  0.00  0.28  0.72  0.00  0.00  0.00  0.00
  C2                      1.00   0.00  0.00  0.00  0.55  0.45  0.00  0.00  1.00  0.00
  C9                      1.00   0.00  0.00  0.00  1.00  0.00  0.00  0.00  1.00  0.00
  C16                     1.00   0.00  0.00  0.00  0.61  0.39  0.00  0.00  0.47  0.00
  C3                      1.00   0.00  0.01  0.00  0.05  0.94  0.00  0.00  0.39  0.00
  C19                     1.00   0.00  0.00  0.00  1.00  0.00  0.00  0.00  1.00  0.00
  C11                     1.00   0.00  0.00  0.00  0.31  0.69  0.00  0.00  1.00  0.00
  C20                     1.00   0.00  0.00  0.00  0.54  0.46  0.00  0.00  0.97  0.00
  C22                     1.00   0.00  0.00  0.00  0.81  0.19  0.00  0.00  1.00  0.00
  C12                     1.00   0.00  0.00  0.00  1.00  0.00  0.00  0.00  1.00  0.00
  C17                     1.00   0.00  0.00  0.00  0.78  0.22  0.00  0.00  0.96  0.00
  C10                     1.00   0.00  0.00  0.00  0.96  0.04  0.00  0.00  0.98  0.00
  C13                     1.00   0.00  0.00  0.00  0.86  0.14  0.00  0.00  0.11  0.00
  C18                     1.00   0.00  0.00  0.00  0.93  0.07  0.00  0.00  0.97  0.00
  C23                     1.00   0.00  0.00  0.00  0.86  0.14  0.00  0.00  0.94  0.00
  C4                      1.00   0.00  0.00  0.00  0.95  0.05  0.00  0.00  0.98  0.00
  C7                      1.00   0.00  0.00  0.00  0.94  0.06  0.00  0.00  0.97  0.00
  C14                     1.00   0.00  0.01  0.00  0.01  0.98  0.00  0.00  0.30  0.00
  C5                      1.00   0.00  0.00  0.00  0.96  0.04  0.00  0.00  0.73  0.00
  C8                      1.00   0.00  0.00  0.00  0.21  0.79  0.00  0.00  0.00  0.00
  C15                     1.00   0.00  0.00  0.00  0.00  1.00  0.00  0.00  0.00  0.00
  C21                     1.00   0.00  0.00  0.00  0.01  0.99  0.00  0.00  0.00  0.00
  
  
  *************************
  Conduit Surcharge Summary
  *************************
  
  ----------------------------------------------------------------------------
                                                           Hours        Hours 
                         --------- Hours Full --------   Above Full   Capacity
  Conduit                Both Ends  Upstream  Dnstream   Normal Flow   Limited
  ----------------------------------------------------------------------------
  C6                          0.01      1.85      0.01      1.72         0.01
  C10                         0.01      0.01      6.74      0.01         0.01
  C13                         0.01      0.01      6.64      0.01         0.01
  C18                         0.01      0.01      6.74      0.01         0.01
  C23                         0.01      0.01      6.69      0.01         0.01
  C4                          0.01      0.01      6.75      0.01         0.01
  C7                          0.01      0.01      6.74      0.01         0.01
  C5                          1.86      1.94      2.06      1.92         1.81
  C8                          0.01      1.63      0.01      1.65         0.01
  C15                         0.01      1.74      0.01      1.77         0.01
  C21                         0.01      0.82      0.01      0.78         0.01
  

  Analysis begun on:  Sun Oct 20 17:03:28 2024
  Analysis ended on:  Sun Oct 20 17:03:29 2024
  Total elapsed time: 00:00:01