
  EPA STORM WATER MANAGEMENT MODEL - VERSION 5.2 (Build 5.2.4)
  PYSWMM TOOLKIT API - VERSION v1.0 (2023-11-27)
  ------------------------------------------------------------

  WARNING 04: minimum elevation drop used for Conduit WS02004404WS02004405
  WARNING 03: negative offset ignored for Link YS02001904YS02001907
  
  ****************
  Analysis Options
  ****************
  Flow Units ............... LPS
  Process Models:
    Rainfall/Runoff ........ YES
    RDII ................... NO
    Snowmelt ............... NO
    Groundwater ............ NO
    Flow Routing ........... YES
    Ponding Allowed ........ NO
    Water Quality .......... NO
  Infiltration Method ...... HORTON
  Flow Routing Method ...... DYNWAVE
  Surcharge Method ......... EXTRAN
  Starting Date ............ 08/28/2015 08:00:00
  Ending Date .............. 08/28/2015 16:00:00
  Antecedent Dry Days ...... 8.0
  Report Time Step ......... 00:01:00
  Wet Time Step ............ 00:01:00
  Dry Time Step ............ 00:01:00
  Routing Time Step ........ 30.00 sec
  Variable Time Step ....... YES
  Maximum Trials ........... 8
  Number of Threads ........ 4
  Head Tolerance ........... 0.001500 m
  
  
  **************************        Volume         Depth
  Runoff Quantity Continuity     hectare-m            mm
  **************************     ---------       -------
  Total Precipitation ......         2.430        73.262
  Evaporation Loss .........         0.000         0.000
  Infiltration Loss ........         0.099         2.995
  Surface Runoff ...........         2.298        69.293
  Final Storage ............         0.033         0.994
  Continuity Error (%) .....        -0.028
  
  
  **************************        Volume        Volume
  Flow Routing Continuity        hectare-m      10^6 ltr
  **************************     ---------     ---------
  Dry Weather Inflow .......         0.025         0.251
  Wet Weather Inflow .......         2.299        22.995
  Groundwater Inflow .......         0.000         0.000
  RDII Inflow ..............         0.000         0.000
  External Inflow ..........         0.083         0.834
  External Outflow .........         1.641        16.408
  Flooding Loss ............         0.837         8.373
  Evaporation Loss .........         0.000         0.000
  Exfiltration Loss ........         0.000         0.000
  Initial Stored Volume ....         0.243         2.431
  Final Stored Volume ......         0.182         1.816
  Continuity Error (%) .....        -0.328
  
  
  *************************
  Highest Continuity Errors
  *************************
  Node YS02001583 (-9.02%)
  Node YS02001884 (5.38%)
  Node WS02006256 (-1.60%)
  
  
  ***************************
  Time-Step Critical Elements
  ***************************
  Link WS02006252WS02006251 (39.94%)
  Link WS02006238WS02006235 (21.16%)
  Link WS02004404WS02004405 (16.44%)
  Link YS02001791YS02001793 (6.36%)
  Link WS02003066WSF200 (3.76%)
  
  
  ********************************
  Highest Flow Instability Indexes
  ********************************
  Link WS02006113WS02006111 (43)
  Link WS02004404WS02004405 (20)
  Link WS02006256WS02006235 (20)
  Link WS02006111WS02006112 (19)
  Link WS02006238WS02006235 (17)
  
  
  *********************************
  Most Frequent Nonconverging Nodes
  *********************************
  Node CC-1 (14.09%)
  Node CC-2 (14.09%)
  Node JK-1 (14.09%)
  Node JK-2 (14.09%)
  Node WSC (14.09%)
  
  
  *************************
  Routing Time Step Summary
  *************************
  Minimum Time Step           :     0.00 sec
  Average Time Step           :     2.18 sec
  Maximum Time Step           :     7.04 sec
  % of Time in Steady State   :     0.00
  Average Iterations per Step :     3.35
  % of Steps Not Converging   :    14.09
  Time Step Frequencies       :
     30.000 - 13.228 sec      :     0.00 %
     13.228 -  5.833 sec      :     9.55 %
      5.833 -  2.572 sec      :    21.70 %
      2.572 -  1.134 sec      :    24.51 %
      1.134 -  0.500 sec      :    44.23 %
  
  
  ***************************
  Subcatchment Runoff Summary
  ***************************
  
  ------------------------------------------------------------------------------------------------------------------------------
                            Total      Total      Total      Total     Imperv       Perv      Total       Total     Peak  Runoff
                           Precip      Runon       Evap      Infil     Runoff     Runoff     Runoff      Runoff   Runoff   Coeff
  Subcatchment                 mm         mm         mm         mm         mm         mm         mm    10^6 ltr      LPS
  ------------------------------------------------------------------------------------------------------------------------------
  sub60                     73.26       0.00       0.00       1.81      63.28       6.98      70.26        0.92   677.23   0.959
  sub61                     73.26       0.00       0.00       2.62      59.68       9.84      69.52        1.28   938.08   0.949
  sub62                     73.26       0.00       0.00       1.21      66.12       4.66      70.78        1.94  1302.61   0.966
  sub63                     73.26       0.00       0.00       4.82      51.05      16.44      67.49        1.53  1035.80   0.921
  sub64                     73.26       0.00       0.00       2.44      61.07       8.56      69.63        1.67  1057.22   0.950
  sub65                     73.26       0.00       0.00       2.11      62.49       7.42      69.91        1.92  1177.30   0.954
  sub66                     73.26       0.00       0.00       5.94      50.94      15.30      66.25        3.09  1511.84   0.904
  sub67                     73.26       0.00       0.00       1.17      66.17       4.70      70.86        1.32  1021.12   0.967
  sub68                     73.26       0.00       0.00       2.17      61.83       8.09      69.91        1.92  1342.68   0.954
  sub69                     73.26       0.00       0.00       1.92      62.17       9.07      71.23        2.64  1567.79   0.972
  sub70                     73.26       0.00       0.00       6.41      48.19      18.50      66.69        1.93   847.09   0.910
  sub71                     73.26       0.00       0.00       1.24      66.08       4.63      70.71        1.85  1143.15   0.965
  sub72                     73.26       0.00       0.00       1.10      66.74       4.03      70.77        0.97   547.41   0.966
  
  
  ******************
  Node Depth Summary
  ******************
  
  ---------------------------------------------------------------------------------
                                 Average  Maximum  Maximum  Time of Max    Reported
                                   Depth    Depth      HGL   Occurrence   Max Depth
  Node                 Type       Meters   Meters   Meters  days hr:min      Meters
  ---------------------------------------------------------------------------------
  WS02003060           JUNCTION     0.23     0.38     5.32     0  02:34        0.38
  WS02003066           JUNCTION     0.19     0.30     5.85     0  02:34        0.30
  WS02003067           JUNCTION     0.49     0.70     6.02     0  02:34        0.70
  WS02003069           JUNCTION     0.26     0.43     5.02     0  02:35        0.43
  WS02003072           JUNCTION     0.32     0.50     4.87     0  02:36        0.50
  WS02003073           JUNCTION     0.18     0.30     4.36     0  02:37        0.30
  WS02004401           JUNCTION     0.59     0.88     6.88     0  02:30        0.88
  WS02004402           JUNCTION     0.62     0.90     6.86     0  02:30        0.90
  WS02004403           JUNCTION     0.64     0.92     6.85     0  02:15        0.92
  WS02004404           JUNCTION     0.72     1.03     6.88     0  03:01        1.00
  WS02004405           JUNCTION     0.71     0.97     6.82     0  02:33        0.97
  WS02004406           JUNCTION     0.72     0.96     6.79     0  02:35        0.96
  WS02004407           JUNCTION     0.17     0.30     6.61     0  02:16        0.30
  WS02004409           JUNCTION     0.38     0.67     6.44     0  02:33        0.67
  WS02004410           JUNCTION     0.41     0.68     6.40     0  02:33        0.68
  WS02004411           JUNCTION     0.43     0.69     6.37     0  02:34        0.69
  WS02004412           JUNCTION     0.45     0.70     6.34     0  02:34        0.70
  WS02004413           JUNCTION     0.61     0.86     6.33     0  02:34        0.86
  WS02006109           JUNCTION     0.64     1.18     7.80     0  02:19        0.98
  WS02006110           JUNCTION     0.64     1.33     7.91     0  02:19        0.93
  WS02006111           JUNCTION     0.17     0.29     7.00     0  02:52        0.29
  WS02006112           JUNCTION     0.74     1.10     6.98     0  03:19        1.07
  WS02006113           JUNCTION     0.26     0.46     7.35     0  02:52        0.46
  WS02006115           JUNCTION     0.47     0.77     6.91     0  02:15        0.77
  WS02006116           JUNCTION     0.56     0.86     6.90     0  02:15        0.85
  WS02006228           JUNCTION     0.63     1.41     8.06     0  02:19        1.04
  WS02006229           JUNCTION     0.60     1.47     8.17     0  02:19        1.07
  WS02006230           JUNCTION     0.59     1.77     8.51     0  02:19        1.24
  WS02006231           JUNCTION     0.41     1.40     8.52     0  02:19        0.95
  WS02006232           JUNCTION     0.55     1.44     8.48     0  02:19        1.14
  WS02006234           JUNCTION     0.47     1.50     8.66     0  02:18        1.18
  WS02006235           JUNCTION     0.50     1.67     8.84     0  02:18        1.37
  WS02006238           JUNCTION     0.53     1.73     8.87     0  02:18        1.40
  WS02006239           JUNCTION     0.50     1.68     8.89     0  02:18        1.33
  WS02006240           JUNCTION     0.46     1.59     8.88     0  02:18        1.29
  WS02006242           JUNCTION     0.53     1.55     8.82     0  02:18        1.35
  WS02006243           JUNCTION     0.44     1.40     8.82     0  02:18        1.22
  WS02006245           JUNCTION     0.44     1.31     8.80     0  02:18        1.17
  WS02006247           JUNCTION     0.46     1.26     8.76     0  02:18        1.16
  WS02006248           JUNCTION     0.42     1.10     8.69     0  02:03        1.09
  WS02006249           JUNCTION     0.45     1.09     8.69     0  01:56        1.09
  WS02006251           JUNCTION     0.45     1.46     9.13     0  02:03        1.22
  WS02006252           JUNCTION     0.33     1.50     9.74     0  00:00        0.78
  WS02006256           JUNCTION     0.95     2.35     9.28     0  00:00        2.35
  WSF200               JUNCTION     0.16     0.29     5.52     0  02:34        0.29
  YS02001580           JUNCTION     0.11     1.05     9.59     0  01:44        0.77
  YS02001583           JUNCTION     0.15     1.14     9.64     0  01:44        0.82
  YS02001586           JUNCTION     0.23     1.13     9.30     0  01:43        1.13
  YS02001590           JUNCTION     0.34     1.40     9.26     0  01:42        1.38
  YS02001593           JUNCTION     0.27     1.33     9.19     0  01:44        1.29
  YS02001596           JUNCTION     0.36     1.68     9.10     0  01:44        1.65
  YS02001600           JUNCTION     0.43     1.87     9.00     0  01:43        1.86
  YS02001601           JUNCTION     0.63     2.06     8.90     0  01:43        2.06
  YS02001602           JUNCTION     0.53     1.87     8.77     0  01:43        1.87
  YS02001605           JUNCTION     0.50     1.78     8.68     0  01:43        1.78
  YS02001607           JUNCTION     0.48     1.66     8.51     0  01:44        1.65
  YS02001610           JUNCTION     0.53     1.68     8.48     0  01:43        1.68
  YS02001613           JUNCTION     0.49     1.70     8.54     0  01:43        1.67
  YS02001616           JUNCTION     0.42     1.61     8.52     0  01:43        1.61
  YS02001619           JUNCTION     0.39     1.61     8.54     0  01:43        1.61
  YS02001622           JUNCTION     0.38     1.62     8.52     0  01:43        1.58
  YS02001625           JUNCTION     0.65     1.78     8.38     0  01:44        1.78
  YS02001629           JUNCTION     0.51     1.85     8.40     0  01:44        1.85
  YS02001633           JUNCTION     0.59     2.08     8.53     0  01:45        2.08
  YS02001641           JUNCTION     0.57     1.99     8.43     0  01:45        1.96
  YS02001644           JUNCTION     0.56     1.92     8.35     0  01:45        1.92
  YS02001647           JUNCTION     0.35     1.86     8.47     0  01:47        1.86
  YS02001649           JUNCTION     0.40     2.05     8.44     0  01:47        2.05
  YS02001652           JUNCTION     0.28     2.16     8.76     0  01:46        2.16
  YS02001655           JUNCTION     0.22     2.20     9.05     0  01:46        1.91
  YS02001658           JUNCTION     0.16     2.30     9.44     0  01:47        1.60
  YS02001661           JUNCTION     0.18     2.46     9.86     0  01:47        1.44
  YS02001664           JUNCTION     0.07     2.31    10.23     0  01:48        0.99
  YS02001745           JUNCTION     0.09     2.35     9.87     0  01:47        0.86
  YS02001748           JUNCTION     0.15     2.27     9.35     0  01:47        1.28
  YS02001751           JUNCTION     0.19     2.20     9.08     0  01:47        1.47
  YS02001754           JUNCTION     0.25     2.20     8.81     0  01:47        1.72
  YS02001757           JUNCTION     0.41     2.21     8.47     0  01:47        2.05
  YS02001759           JUNCTION     0.35     2.21     8.57     0  01:47        2.11
  YS02001762           JUNCTION     0.35     2.15     8.55     0  01:47        2.07
  YS02001765           JUNCTION     0.33     2.10     8.55     0  01:46        2.02
  YS02001767           JUNCTION     0.33     2.03     8.52     0  01:46        1.96
  YS02001770           JUNCTION     0.34     1.95     8.44     0  01:46        1.95
  YS02001774           JUNCTION     0.40     2.05     8.47     0  01:46        2.02
  YS02001779           JUNCTION     0.23     1.68     8.37     0  01:46        1.68
  YS02001783           JUNCTION     0.27     1.63     7.77     0  01:45        1.23
  YS02001784           JUNCTION     0.28     1.34     7.41     0  01:45        1.12
  YS02001786           JUNCTION     0.23     1.05     7.08     0  01:45        0.89
  YS02001788           JUNCTION     0.17     0.62     6.60     0  01:51        0.62
  YS02001790           JUNCTION     0.20     0.73     6.37     0  01:50        0.72
  YS02001791           JUNCTION     0.12     0.45     5.92     0  01:50        0.43
  YS02001793           JUNCTION     0.06     0.30     5.13     0  01:55        0.28
  YS02001882           JUNCTION     0.34     1.83     8.55     0  01:45        1.74
  YS02001884           JUNCTION     0.43     1.93     8.54     0  01:45        1.84
  YS02001887           JUNCTION     0.51     1.94     8.48     0  01:49        1.94
  YS02001890           JUNCTION     0.54     1.81     8.32     0  01:45        1.81
  YS02001895           JUNCTION     0.31     1.63     8.38     0  01:44        1.56
  YS02001898           JUNCTION     0.32     1.77     8.51     0  01:44        1.56
  YS02001901           JUNCTION     0.43     1.72     8.33     0  01:45        1.67
  YS02001904           JUNCTION     0.41     1.67     8.30     0  01:45        1.64
  YS02001907           JUNCTION     0.73     1.96     8.25     0  01:45        1.96
  YS02001910           JUNCTION     0.53     2.10     8.61     0  01:45        2.01
  YS02001915           JUNCTION     0.35     2.00     8.72     0  01:45        2.00
  YS02001918           JUNCTION     0.20     1.81     8.88     0  01:45        1.59
  YS02001920           JUNCTION     0.28     2.09     9.10     0  01:46        1.65
  YS02001923           JUNCTION     0.15     2.03     9.29     0  01:46        1.39
  YS02001926           JUNCTION     0.19     1.90     9.35     0  01:46        1.24
  YS02001929           JUNCTION     0.11     1.78     9.47     0  01:46        1.04
  YS02006553           JUNCTION     0.74     2.09     8.37     0  01:45        2.00
  YS02006556           JUNCTION     0.71     2.19     8.51     0  01:45        2.05
  YS02006558           JUNCTION     0.75     2.27     8.54     0  01:45        2.13
  YS02006561           JUNCTION     0.17     1.49     8.15     0  01:45        0.91
  YS02163301           JUNCTION     0.53     1.96     8.48     0  01:49        1.96
  YS02163601           JUNCTION     0.63     2.08     8.48     0  01:45        2.08
  YS02164001           JUNCTION     0.56     2.03     8.48     0  01:45        1.97
  CC-1                 OUTFALL      0.00     0.00     0.00     0  00:00        0.00
  CC-2                 OUTFALL      0.00     0.00     0.00     0  00:00        0.00
  JK-1                 OUTFALL      0.00     0.00     0.00     0  00:00        0.00
  JK-2                 OUTFALL      0.00     0.00     0.00     0  00:00        0.00
  WSC                  OUTFALL      0.18     0.30     0.97     0  02:37        0.30
  CC-storage           STORAGE      0.87     1.70     7.20     0  02:23        1.70
  JK-storage           STORAGE      1.94     4.24     5.04     0  01:55        4.17
  
  
  *******************
  Node Inflow Summary
  *******************
  
  -------------------------------------------------------------------------------------------------
                                  Maximum  Maximum                  Lateral       Total        Flow
                                  Lateral    Total  Time of Max      Inflow      Inflow     Balance
                                   Inflow   Inflow   Occurrence      Volume      Volume       Error
  Node                 Type           LPS      LPS  days hr:min    10^6 ltr    10^6 ltr     Percent
  -------------------------------------------------------------------------------------------------
  WS02003060           JUNCTION     16.53   555.31     0  02:34       0.476        5.14       0.046
  WS02003066           JUNCTION      0.00   538.49     0  02:34           0        4.66       0.029
  WS02003067           JUNCTION      0.00   538.45     0  02:34           0        4.67       0.090
  WS02003069           JUNCTION      0.32   555.54     0  02:35     0.00922        5.15       0.077
  WS02003072           JUNCTION      0.00   555.37     0  02:36           0        5.14       0.136
  WS02003073           JUNCTION      1.82   557.05     0  02:36      0.0524        5.19       0.112
  WS02004401           JUNCTION      0.00   542.59     0  02:32           0        4.77       0.215
  WS02004402           JUNCTION      0.00   541.51     0  02:15           0        4.76       0.218
  WS02004403           JUNCTION      0.00   542.98     0  03:03           0        4.75       0.212
  WS02004404           JUNCTION      0.16   564.80     0  02:16     0.00467        4.74       0.174
  WS02004405           JUNCTION      0.04   610.67     0  02:16      0.0011        4.73       0.192
  WS02004406           JUNCTION      0.00   545.48     0  02:33           0        4.72       0.439
  WS02004407           JUNCTION      0.00   540.81     0  02:16           0         4.7       0.025
  WS02004409           JUNCTION      0.00   540.08     0  02:16           0         4.7       0.058
  WS02004410           JUNCTION      0.00   539.47     0  02:16           0         4.7       0.093
  WS02004411           JUNCTION      0.00   538.89     0  02:36           0         4.7       0.120
  WS02004412           JUNCTION      0.00   538.66     0  02:34           0        4.69       0.160
  WS02004413           JUNCTION      0.00   538.60     0  02:33           0        4.68       0.284
  WS02006109           JUNCTION      1.23   562.66     0  03:01      0.0354        4.81       0.144
  WS02006110           JUNCTION      0.00   563.96     0  03:01           0        4.81       0.153
  WS02006111           JUNCTION      0.00   562.04     0  03:03           0         4.8       0.016
  WS02006112           JUNCTION      0.00   548.28     0  02:52           0         4.8       0.363
  WS02006113           JUNCTION      0.00   567.74     0  02:19           0         4.8       0.045
  WS02006115           JUNCTION      0.00   555.58     0  02:52           0        4.78       0.139
  WS02006116           JUNCTION      0.00   540.76     0  02:15           0        4.77       0.122
  WS02006228           JUNCTION      0.00   561.13     0  02:19           0        4.78       0.083
  WS02006229           JUNCTION      0.00   560.45     0  02:19           0        4.79       0.115
  WS02006230           JUNCTION     10.28   592.71     0  03:01       0.296        4.79       0.105
  WS02006231           JUNCTION      0.00   574.92     0  02:03           0        4.49      -0.050
  WS02006232           JUNCTION      0.00   574.07     0  02:03           0        4.51       0.260
  WS02006234           JUNCTION      0.00   569.53     0  03:06           0        4.49      -0.308
  WS02006235           JUNCTION      0.00   565.18     0  03:06           0        4.61       0.331
  WS02006238           JUNCTION      0.00   422.84     0  02:00           0        3.73      -0.322
  WS02006239           JUNCTION      0.00   422.01     0  02:00           0        3.65      -0.235
  WS02006240           JUNCTION      0.00   420.04     0  02:15           0         3.6      -0.131
  WS02006242           JUNCTION      0.00   419.76     0  02:35           0        3.58       0.010
  WS02006243           JUNCTION      0.00   419.28     0  03:20           0        3.57      -0.013
  WS02006245           JUNCTION      0.00   419.25     0  03:20           0        3.58       0.565
  WS02006247           JUNCTION      0.00   419.61     0  03:20           0        3.58      -0.029
  WS02006248           JUNCTION      0.00   418.90     0  02:00           0        3.58       0.078
  WS02006249           JUNCTION      0.00   466.98     0  04:35           0        3.83       0.590
  WS02006251           JUNCTION      0.08   405.67     0  01:56     0.00222        3.83       0.015
  WS02006252           JUNCTION      0.00   400.00     0  00:00           0        3.81      -0.292
  WS02006256           JUNCTION      0.00   300.00     0  00:00           0        1.33      -1.579
  WSF200               JUNCTION      0.00   538.54     0  02:34           0        4.66       0.011
  YS02001580           JUNCTION      0.00   135.66     0  01:43           0     0.00454       2.732
  YS02001583           JUNCTION      0.00   226.71     0  01:44           0      0.0151      -8.276
  YS02001586           JUNCTION    847.09   847.10     0  01:53        1.93        1.94       0.068
  YS02001590           JUNCTION      0.00   318.03     0  01:56           0        1.41      -0.025
  YS02001593           JUNCTION      0.00   317.97     0  02:05           0        1.41       0.002
  YS02001596           JUNCTION      0.00   317.97     0  02:13           0        1.41      -0.017
  YS02001600           JUNCTION      0.00   318.08     0  01:56           0        1.41      -0.003
  YS02001601           JUNCTION   1567.79  1885.39     0  01:51        2.64        4.05       0.004
  YS02001602           JUNCTION      0.00   552.72     0  01:43           0        2.33       0.014
  YS02001605           JUNCTION      0.00   552.59     0  01:43           0         2.2       0.015
  YS02001607           JUNCTION      0.00   552.29     0  01:43           0         2.2       0.084
  YS02001610           JUNCTION      0.00   851.43     0  01:52           0        2.56       0.072
  YS02001613           JUNCTION      0.00   553.65     0  01:43           0        2.01       0.078
  YS02001616           JUNCTION      0.00   565.58     0  01:43           0        2.01       0.019
  YS02001619           JUNCTION   1511.84  1511.84     0  01:52        3.09        4.74      -0.003
  YS02001622           JUNCTION      0.00  1004.43     0  01:51           0        4.37      -0.002
  YS02001625           JUNCTION      0.00  1403.77     0  01:54           0        4.63       0.176
  YS02001629           JUNCTION      0.00   943.82     0  01:44           0        3.55       0.010
  YS02001633           JUNCTION   1177.50  1434.77     0  01:45        1.93        5.11       0.063
  YS02001641           JUNCTION      0.00  1433.32     0  01:45           0        4.77       0.055
  YS02001644           JUNCTION   1057.26  1901.43     0  01:45        1.67        6.44       0.038
  YS02001647           JUNCTION      0.00  1901.90     0  01:45           0        5.76       0.006
  YS02001649           JUNCTION      0.00  2145.64     0  01:45           0         7.3      -0.003
  YS02001652           JUNCTION      0.00  1059.23     0  01:50           0        1.54      -0.087
  YS02001655           JUNCTION      0.15  1058.99     0  01:50     0.00443        1.54      -0.052
  YS02001658           JUNCTION      0.00  1057.89     0  01:50           0        1.53      -0.052
  YS02001661           JUNCTION      0.00  1056.60     0  01:50           0        1.53       0.012
  YS02001664           JUNCTION   1035.80  1035.80     0  01:50        1.53        1.53      -0.015
  YS02001745           JUNCTION    677.23   734.88     0  01:47       0.924       0.926       0.200
  YS02001748           JUNCTION      0.04   734.44     0  01:47      0.0013       0.928      -0.402
  YS02001751           JUNCTION      0.01   681.74     0  01:50    0.000317       0.936       0.099
  YS02001754           JUNCTION      0.26   682.56     0  01:50     0.00749        0.95      -0.176
  YS02001757           JUNCTION      0.00  3589.62     0  01:48           0        11.1       0.035
  YS02001759           JUNCTION    938.12  1558.74     0  01:47        1.28         2.9      -0.014
  YS02001762           JUNCTION      0.00   879.51     0  01:47           0        1.62      -0.009
  YS02001765           JUNCTION      0.00   880.06     0  01:47           0        1.62      -0.005
  YS02001767           JUNCTION      0.54   880.60     0  01:47      0.0154        1.62       0.000
  YS02001770           JUNCTION   1302.76  1302.76     0  01:51        1.94        1.99      -0.039
  YS02001774           JUNCTION      0.00   788.14     0  01:50           0       0.402       0.254
  YS02001779           JUNCTION      0.01   787.72     0  01:50    0.000144       0.357      -0.229
  YS02001783           JUNCTION      0.00  1170.93     0  01:49           0        4.21       0.004
  YS02001784           JUNCTION      1.06  1172.35     0  01:49      0.0305        4.24       0.011
  YS02001786           JUNCTION      0.06  1172.62     0  01:49     0.00162        4.25       0.015
  YS02001788           JUNCTION      0.07  1172.10     0  01:49     0.00204        4.25       0.007
  YS02001790           JUNCTION      0.15  1175.05     0  01:52     0.00446        4.25       0.021
  YS02001791           JUNCTION      0.00  1288.93     0  01:50           0        4.25      -0.022
  YS02001793           JUNCTION      0.00  1245.43     0  01:51           0        4.25       0.006
  YS02001882           JUNCTION      0.00    61.17     0  01:44           0      0.0127       5.285
  YS02001884           JUNCTION      0.00   118.72     0  01:44           0      0.0486       5.683
  YS02001887           JUNCTION   1021.57  1021.71     0  01:50        1.33        1.36       0.320
  YS02001890           JUNCTION      0.00  1021.31     0  01:50           0        1.32       0.360
  YS02001895           JUNCTION      0.00   529.71     0  01:45           0        1.13       0.163
  YS02001898           JUNCTION      0.00   530.03     0  01:45           0        1.13      -0.013
  YS02001901           JUNCTION      0.00   530.69     0  01:45           0        1.13       0.301
  YS02001904           JUNCTION      0.00   530.91     0  01:45           0        1.14       0.230
  YS02001907           JUNCTION      0.00  2376.83     0  01:50           0        4.07       0.407
  YS02001910           JUNCTION      0.00  1686.42     0  01:51           0         2.9       0.244
  YS02001915           JUNCTION   1143.17  1685.97     0  01:51        1.85        2.95       0.045
  YS02001918           JUNCTION      0.00   561.37     0  01:45           0        1.14       0.002
  YS02001920           JUNCTION      2.87   555.83     0  01:52      0.0827        1.12       0.071
  YS02001923           JUNCTION      0.04   588.55     0  01:45     0.00109        1.02      -0.050
  YS02001926           JUNCTION      0.05   945.10     0  01:46      0.0015       0.996      -0.029
  YS02001929           JUNCTION    547.41   780.76     0  01:46       0.973       0.979      -0.030
  YS02006553           JUNCTION      0.00   798.41     0  02:11           0        2.38       0.501
  YS02006556           JUNCTION      0.00   798.98     0  02:12           0        2.39       0.324
  YS02006558           JUNCTION   1343.56  1343.56     0  01:50        1.95        4.28       0.080
  YS02006561           JUNCTION      0.00  1172.57     0  01:45           0        4.21      -0.001
  YS02163301           JUNCTION      0.00   926.64     0  01:45           0        3.53       0.032
  YS02163601           JUNCTION      0.11  1434.63     0  01:45     0.00317        4.76       0.097
  YS02164001           JUNCTION      0.00  1434.37     0  01:45           0        4.76       0.038
  CC-1                 OUTFALL       0.00   683.00     0  00:00           0        4.66       0.000
  CC-2                 OUTFALL       0.00   683.00     0  00:00           0        3.52       0.000
  JK-1                 OUTFALL       0.00  1000.00     0  00:00           0         1.3       0.000
  JK-2                 OUTFALL       0.00  1000.00     0  00:00           0        1.74       0.000
  WSC                  OUTFALL       0.00   556.89     0  02:37           0        5.18       0.000
  CC-storage           STORAGE       0.00  3590.32     0  01:49           0        13.4      -0.231
  JK-storage           STORAGE       0.00  1274.48     0  01:51           0         4.4      -0.396
  
  
  **********************
  Node Surcharge Summary
  **********************
  
  Surcharging occurs when water rises above the top of the highest conduit.
  ---------------------------------------------------------------------
                                               Max. Height   Min. Depth
                                   Hours       Above Crown    Below Rim
  Node                 Type      Surcharged         Meters       Meters
  ---------------------------------------------------------------------
  WS02004404           JUNCTION        0.03          0.034        2.746
  WS02006109           JUNCTION        1.68          0.364        1.456
  WS02006110           JUNCTION        0.76          0.420        1.430
  WS02006112           JUNCTION        0.91          0.100        1.580
  WS02006228           JUNCTION        1.68          0.583        1.617
  WS02006229           JUNCTION        1.68          0.672        1.778
  WS02006230           JUNCTION        0.77          0.687        0.883
  WS02006231           JUNCTION        0.89          0.688        0.842
  WS02006232           JUNCTION        1.70          0.736        0.744
  WS02006234           JUNCTION        1.27          0.780        0.460
  WS02006235           JUNCTION        1.65          0.963        0.327
  WS02006238           JUNCTION        1.68          1.009        0.421
  WS02006239           JUNCTION        1.66          0.944        0.346
  WS02006240           JUNCTION        1.67          0.879        0.511
  WS02006242           JUNCTION        1.69          0.820        0.000
  WS02006243           JUNCTION        1.67          0.692        0.078
  WS02006245           JUNCTION        1.67          0.604        0.246
  WS02006247           JUNCTION        1.67          0.553        0.207
  WS02006248           JUNCTION        1.66          0.380        0.000
  WS02006249           JUNCTION        1.66          0.390        0.000
  WS02006251           JUNCTION        0.95          0.433        0.747
  WS02006252           JUNCTION        2.17          1.100        0.000
  WS02006256           JUNCTION        6.90          2.050        0.000
  YS02001580           JUNCTION        0.69          0.450        0.000
  YS02001583           JUNCTION        0.70          0.500        0.000
  YS02001586           JUNCTION        0.84          0.510        0.000
  YS02001590           JUNCTION        0.91          0.750        0.000
  YS02001593           JUNCTION        0.91          0.713        0.127
  YS02001596           JUNCTION        1.02          0.952        0.118
  YS02001600           JUNCTION        1.18          1.190        0.000
  YS02001601           JUNCTION        1.53          1.440        0.000
  YS02001602           JUNCTION        1.43          1.270        0.000
  YS02001605           JUNCTION        1.38          1.180        0.000
  YS02001607           JUNCTION        0.90          0.661        0.019
  YS02001610           JUNCTION        0.93          0.680        0.000
  YS02001613           JUNCTION        0.89          0.700        0.000
  YS02001616           JUNCTION        0.85          0.610        0.000
  YS02001619           JUNCTION        0.84          0.610        0.000
  YS02001622           JUNCTION        0.83          0.620        0.000
  YS02001625           JUNCTION        1.02          0.780        0.000
  YS02001629           JUNCTION        0.79          0.470        0.000
  YS02001633           JUNCTION        1.05          1.060        0.000
  YS02001641           JUNCTION        1.00          0.994        0.106
  YS02001644           JUNCTION        0.97          0.920        0.000
  YS02001647           JUNCTION        0.77          0.863        0.037
  YS02001649           JUNCTION        0.90          1.050        0.000
  YS02001652           JUNCTION        0.69          1.130        0.000
  YS02001655           JUNCTION        0.50          1.200        0.000
  YS02001658           JUNCTION        0.26          1.300        0.000
  YS02001661           JUNCTION        0.09          1.390        0.000
  YS02001664           JUNCTION        0.01          1.310        0.000
  YS02001745           JUNCTION        0.01          1.350        0.000
  YS02001748           JUNCTION        0.21          1.190        0.000
  YS02001751           JUNCTION        0.35          1.200        0.000
  YS02001754           JUNCTION        0.59          1.150        0.000
  YS02001757           JUNCTION        0.98          1.210        0.000
  YS02001759           JUNCTION        0.87          1.210        0.000
  YS02001762           JUNCTION        0.84          1.150        0.000
  YS02001765           JUNCTION        0.79          1.100        0.000
  YS02001767           JUNCTION        0.75          1.030        0.000
  YS02001770           JUNCTION        0.72          0.920        0.000
  YS02001774           JUNCTION        0.82          1.050        0.000
  YS02001779           JUNCTION        0.58          0.680        0.000
  YS02001783           JUNCTION        0.60          0.828        0.772
  YS02001784           JUNCTION        0.57          0.544        0.946
  YS02001786           JUNCTION        0.47          0.254        1.176
  YS02001882           JUNCTION        0.54          0.830        0.000
  YS02001884           JUNCTION        0.55          0.866        0.004
  YS02001887           JUNCTION        0.59          0.893        0.057
  YS02001890           JUNCTION        0.60          0.760        0.000
  YS02001895           JUNCTION        0.53          0.630        0.120
  YS02001898           JUNCTION        0.53          0.740        0.000
  YS02001901           JUNCTION        0.57          0.718        0.152
  YS02001904           JUNCTION        0.56          0.675        0.175
  YS02001907           JUNCTION        0.79          0.950        0.000
  YS02001910           JUNCTION        0.63          1.100        0.000
  YS02001915           JUNCTION        0.54          1.000        0.000
  YS02001918           JUNCTION        0.46          0.810        0.000
  YS02001920           JUNCTION        0.47          1.091        0.049
  YS02001923           JUNCTION        0.17          0.820        0.000
  YS02001926           JUNCTION        0.19          0.900        0.000
  YS02001929           JUNCTION        0.02          0.780        0.000
  YS02006553           JUNCTION        0.81          1.087        0.103
  YS02006556           JUNCTION        0.71          1.155        0.195
  YS02006558           JUNCTION        0.70          1.169        0.231
  YS02006561           JUNCTION        0.43          0.691        0.459
  YS02163301           JUNCTION        1.03          0.962        0.068
  YS02163601           JUNCTION        1.08          1.080        0.000
  YS02164001           JUNCTION        1.00          1.026        0.074
  
  
  *********************
  Node Flooding Summary
  *********************
  
  Flooding refers to all water that overflows a node, whether it ponds or not.
  --------------------------------------------------------------------------
                                                             Total   Maximum
                                 Maximum   Time of Max       Flood    Ponded
                        Hours       Rate    Occurrence      Volume     Depth
  Node                 Flooded       LPS   days hr:min    10^6 ltr    Meters
  --------------------------------------------------------------------------
  WS02006242              0.01      5.56      0  02:18       0.000     0.000
  WS02006248              0.01     15.64      0  02:03       0.000     0.000
  WS02006249              0.92     88.71      0  01:56       0.222     0.000
  WS02006252              0.01    245.63      0  00:00       0.000     0.000
  WS02006256              1.23    293.19      0  00:00       0.421     0.000
  YS02001580              0.01     96.94      0  01:44       0.000     0.000
  YS02001583              0.01    196.72      0  01:44       0.000     0.000
  YS02001586              0.57    529.59      0  01:53       0.519     0.000
  YS02001590              0.01     60.85      0  01:42       0.000     0.000
  YS02001600              0.01      2.44      0  01:43       0.000     0.000
  YS02001601              0.76   1487.39      0  01:51       1.712     0.000
  YS02001602              0.66     62.01      0  01:59       0.135     0.000
  YS02001605              0.01      3.85      0  01:43       0.000     0.000
  YS02001610              0.59    850.90      0  01:52       0.909     0.000
  YS02001613              0.01     20.22      0  01:43       0.000     0.000
  YS02001616              0.01     13.94      0  01:44       0.000     0.000
  YS02001619              0.01     55.98      0  01:43       0.000     0.000
  YS02001622              0.01    239.32      0  01:43       0.000     0.000
  YS02001625              0.54   1403.75      0  01:54       1.419     0.000
  YS02001629              0.16    390.30      0  01:49       0.110     0.000
  YS02001633              0.01      4.16      0  01:45       0.000     0.000
  YS02001644              0.24   1402.87      0  01:51       0.664     0.000
  YS02001649              0.01    152.60      0  01:47       0.002     0.000
  YS02001652              0.01     80.23      0  01:46       0.000     0.000
  YS02001655              0.01    294.96      0  01:46       0.000     0.000
  YS02001658              0.01    541.35      0  01:47       0.001     0.000
  YS02001661              0.01    296.17      0  01:47       0.000     0.000
  YS02001664              0.01    127.28      0  01:48       0.000     0.000
  YS02001745              0.01    199.90      0  01:47       0.000     0.000
  YS02001748              0.01    577.46      0  01:47       0.001     0.000
  YS02001751              0.01    220.71      0  01:47       0.000     0.000
  YS02001754              0.01     45.36      0  01:47       0.000     0.000
  YS02001757              0.01      8.60      0  01:47       0.000     0.000
  YS02001759              0.01      2.18      0  01:47       0.000     0.000
  YS02001762              0.01      7.44      0  01:47       0.000     0.000
  YS02001765              0.01     66.39      0  01:46       0.000     0.000
  YS02001767              0.01    122.99      0  01:46       0.000     0.000
  YS02001770              0.02    237.85      0  01:46       0.002     0.000
  YS02001774              0.01    174.36      0  01:46       0.000     0.000
  YS02001779              0.22    787.44      0  01:50       0.338     0.000
  YS02001882              0.01      5.95      0  01:45       0.000     0.000
  YS02001890              0.20    505.74      0  01:50       0.186     0.000
  YS02001898              0.01    146.50      0  01:44       0.000     0.000
  YS02001907              0.40   2376.60      0  01:50       1.714     0.000
  YS02001910              0.01     46.51      0  01:45       0.000     0.000
  YS02001915              0.01    213.59      0  01:45       0.000     0.000
  YS02001918              0.01    151.70      0  01:46       0.002     0.000
  YS02001923              0.01     89.01      0  01:46       0.000     0.000
  YS02001926              0.01    764.69      0  01:46       0.005     0.000
  YS02001929              0.01    554.71      0  01:46       0.001     0.000
  YS02163601              0.01      8.54      0  01:45       0.000     0.000
  
  
  **********************
  Storage Volume Summary
  **********************
  
  ------------------------------------------------------------------------------------------------
                         Average    Avg   Evap  Exfil     Maximum    Max    Time of Max    Maximum
                          Volume   Pcnt   Pcnt   Pcnt      Volume   Pcnt     Occurrence    Outflow
  Storage Unit           1000 m³   Full   Loss   Loss     1000 m³   Full    days hr:min        LPS
  ------------------------------------------------------------------------------------------------
  CC-storage               2.429   37.9    0.0    0.0       4.727   73.7       0  02:23    1783.53
  JK-storage               0.097   33.4    0.0    0.0       0.213   73.1       0  01:55    2300.00
  
  
  ***********************
  Outfall Loading Summary
  ***********************
  
  -----------------------------------------------------------
                         Flow       Avg       Max       Total
                         Freq      Flow      Flow      Volume
  Outfall Node           Pcnt       LPS       LPS    10^6 ltr
  -----------------------------------------------------------
  CC-1                  30.42    683.00    683.00       4.660
  CC-2                  19.70    683.00    683.00       3.520
  JK-1                   5.42   1000.00   1000.00       1.302
  JK-2                  10.03   1000.00   1000.00       1.745
  WSC                   99.95    245.15    556.89       5.182
  -----------------------------------------------------------
  System                33.10   3611.15   3921.96      16.408
  
  
  ********************
  Link Flow Summary
  ********************
  
  -----------------------------------------------------------------------------
                                 Maximum  Time of Max   Maximum    Max/    Max/
                                  |Flow|   Occurrence   |Veloc|    Full    Full
  Link                 Type          LPS  days hr:min     m/sec    Flow   Depth
  -----------------------------------------------------------------------------
  1                    CONDUIT    556.89     0  02:37      2.83    0.19    0.30
  WS02003060WS02003069 CONDUIT    555.22     0  02:35      1.64    0.22    0.34
  WS02003066WSF200     CONDUIT    538.54     0  02:34      2.85    0.09    0.22
  WS02003067WS02003066 CONDUIT    538.49     0  02:34      1.21    0.17    0.42
  WS02003069WS02003072 CONDUIT    555.37     0  02:36      1.37    0.27    0.39
  WS02003072WS02003073 CONDUIT    555.23     0  02:36      1.44    1.20    0.37
  WS02004401WS02004402 CONDUIT    541.51     0  02:15      0.98    0.65    0.89
  WS02004402WS02004403 CONDUIT    542.98     0  03:03      0.97    0.78    0.91
  WS02004403WS02004404 CONDUIT    564.63     0  02:16      0.92    0.41    0.96
  WS02004404WS02004405 CONDUIT    610.63     0  02:16      1.08    5.98    0.98
  WS02004405WS02004406 CONDUIT    545.48     0  02:33      0.99    1.08    0.96
  WS02004406WS02004407 CONDUIT    540.81     0  02:16      1.04    0.24    0.63
  WS02004407WS02004409 CONDUIT    540.08     0  02:16      1.50    0.19    0.48
  WS02004409WS02004410 CONDUIT    539.47     0  02:16      0.98    0.70    0.68
  WS02004410WS02004411 CONDUIT    538.89     0  02:36      0.94    0.74    0.69
  WS02004411WS02004412 CONDUIT    538.66     0  02:34      0.92    0.77    0.70
  WS02004412WS02004413 CONDUIT    538.60     0  02:33      0.82    0.36    0.78
  WS02004413WS02003067 CONDUIT    538.45     0  02:34      1.11    0.23    0.59
  WS02006109WS02006110 CONDUIT    563.96     0  03:01      1.12    1.08    1.00
  WS02006110WS02006113 CONDUIT    567.74     0  02:19      1.38    0.52    0.79
  WS02006111WS02006112 CONDUIT    548.28     0  02:52      1.81    0.26    0.67
  WS02006112WS02006115 CONDUIT    555.58     0  02:52      0.81    0.33    0.88
  WS02006113WS02006111 CONDUIT    562.04     0  03:03      2.47    0.67    0.47
  WS02006115WS02006116 CONDUIT    540.76     0  02:15      0.97    0.69    0.78
  WS02006116WS02004401 CONDUIT    542.59     0  02:32      0.98    0.75    0.87
  WS02006228WS02006109 CONDUIT    561.43     0  03:01      1.12    2.45    1.00
  WS02006229WS02006228 CONDUIT    561.13     0  02:19      1.14    1.86    1.00
  WS02006230WS02006229 CONDUIT    560.45     0  02:19      1.46   12.47    1.00
  WS02006231WS02006230 CONDUIT    582.43     0  03:01      1.59    8.83    1.00
  WS02006232WS02006231 CONDUIT    574.92     0  02:03      1.50    1.20    1.00
  WS02006234WS02006232 CONDUIT    574.07     0  02:03      1.49    1.16    1.00
  WS02006235WS02006234 CONDUIT    569.53     0  03:06      1.48    6.01    1.00
  WS02006238WS02006235 CONDUIT    423.29     0  02:35      1.50    0.94    1.00
  WS02006239WS02006238 CONDUIT    422.84     0  02:00      1.20    1.35    1.00
  WS02006240WS02006239 CONDUIT    422.01     0  02:00      1.29    1.33    1.00
  WS02006242WS02006240 CONDUIT    420.04     0  02:15      1.17    1.67    1.00
  WS02006243WS02006242 CONDUIT    419.76     0  02:35      1.43    0.90    1.00
  WS02006245WS02006243 CONDUIT    419.28     0  03:20      1.45    1.24    1.00
  WS02006247WS02006245 CONDUIT    419.25     0  03:20      1.43    3.32    1.00
  WS02006248WS02006247 CONDUIT    419.61     0  03:20      1.46    0.91    1.00
  WS02006249WS02006248 CONDUIT    418.90     0  02:00      1.39    2.29    1.00
  WS02006251WS02006249 CONDUIT    466.98     0  04:35      1.99    1.35    1.00
  WS02006252WS02006251 CONDUIT    405.59     0  01:56     24.61    1.49    1.00
  WS02006256WS02006235 CONDUIT    288.91     0  00:00      4.23    3.06    1.00
  WSF200WS02003060     CONDUIT    538.79     0  02:34      2.06    0.12    0.28
  YS02001580YS02001583 CONDUIT    135.66     0  01:43      0.81    0.53    1.00
  YS02001583YS02001586 CONDUIT    181.84     0  01:44      0.82    0.28    1.00
  YS02001586YS02001590 CONDUIT    318.03     0  01:56      1.26    0.56    1.00
  YS02001590YS02001593 CONDUIT    317.97     0  02:05      1.12    2.00    1.00
  YS02001593YS02001596 CONDUIT    317.97     0  02:13      1.74    0.50    1.00
  YS02001596YS02001600 CONDUIT    318.08     0  01:56      1.23    0.62    1.00
  YS02001600YS02001601 CONDUIT    317.99     0  02:05      1.12    0.55    1.00
  YS02001601YS02001602 CONDUIT    552.72     0  01:43      1.95    2.00    1.00
  YS02001602YS02001605 CONDUIT    552.59     0  01:43      1.95   11.69    1.00
  YS02001605YS02001607 CONDUIT    552.29     0  01:43      1.95    3.03    1.00
  YS02001607YS02001610 CONDUIT    549.46     0  01:43      0.70    0.52    1.00
  YS02001610YS02001613 CONDUIT    553.65     0  01:43      0.70    0.64    1.00
  YS02001613YS02001616 CONDUIT    565.58     0  01:43      0.72    0.48    1.00
  YS02001616YS02001619 CONDUIT    532.06     0  01:43      0.68    0.92    1.00
  YS02001619YS02001622 CONDUIT   1004.43     0  01:51      1.28    1.48    1.00
  YS02001622YS02001625 CONDUIT   1004.31     0  01:51      1.28    0.54    1.00
  YS02001625YS02001629 CONDUIT    943.82     0  01:44      1.20    0.45    1.00
  YS02001629YS02163301 CONDUIT    926.64     0  01:45      1.18    1.14    1.00
  YS02001633YS02163601 CONDUIT   1434.52     0  01:45      1.83    1.51    1.00
  YS02001641YS02001644 CONDUIT   1433.86     0  01:45      1.83    4.64    1.00
  YS02001644YS02001647 CONDUIT   1901.90     0  01:45      2.43    1.12    1.00
  YS02001647YS02001649 CONDUIT   1883.48     0  01:45      2.40    0.99    1.00
  YS02001649YS02001757 CONDUIT   2144.54     0  01:46      2.73    1.30    1.00
  YS02001652YS02001649 CONDUIT   1060.25     0  01:50      1.35    0.53    1.00
  YS02001655YS02001652 CONDUIT   1059.23     0  01:50      1.42    0.51    1.00
  YS02001658YS02001655 CONDUIT   1058.84     0  01:50      1.98    0.45    1.00
  YS02001661YS02001658 CONDUIT   1057.89     0  01:50      2.42    0.42    1.00
  YS02001664YS02001661 CONDUIT   1056.60     0  01:50      2.48    0.33    1.00
  YS02001745YS02001748 CONDUIT    734.39     0  01:47      2.33    0.28    1.00
  YS02001748YS02001751 CONDUIT    681.73     0  01:50      1.81    0.34    1.00
  YS02001751YS02001754 CONDUIT    682.30     0  01:50      1.53    0.33    1.00
  YS02001754YS02001757 CONDUIT    682.32     0  01:50      0.87    0.27    1.00
  YS02001757CaochengTiaoxuchi CONDUIT   3590.32     0  01:49      4.60    1.55    1.00
  YS02001759YS02001757 CONDUIT   1559.96     0  01:47      1.99    1.11    1.00
  YS02001762YS02001759 CONDUIT    878.95     0  01:47      1.12    1.01    1.00
  YS02001765YS02001762 CONDUIT    879.51     0  01:47      1.12    0.82    1.00
  YS02001767YS02001765 CONDUIT    880.06     0  01:47      1.12    1.11    1.00
  YS02001770YS02001767 CONDUIT    880.07     0  01:47      1.12    3.49    1.00
  YS02001774YS02001770 CONDUIT    788.14     0  01:50      1.00    0.50    1.00
  YS02001779YS02001774 CONDUIT    787.71     0  01:50      1.00    0.40    1.00
  YS02001783YS02001784 CONDUIT   1171.29     0  01:49      2.33    1.61    1.00
  YS02001784YS02001785 CONDUIT   1172.56     0  01:49      2.33    2.73    1.00
  YS02001786YS02001788 CONDUIT   1172.03     0  01:49      2.49    2.26    0.89
  YS02001788YS02001790 CONDUIT   1174.89     0  01:52      2.72    0.87    0.84
  YS02001790YS02001791 CONDUIT   1288.93     0  01:50      3.44    1.40    0.71
  YS02001791YS02001793 CONDUIT   1245.43     0  01:51      6.73    0.53    0.45
  YS02001793JiankangQianchi CONDUIT   1274.48     0  01:51      2.55    0.10    0.65
  YS02001882YS02001884 CONDUIT     61.17     0  01:44      0.14    0.07    1.00
  YS02001884YS02001887 CONDUIT    118.72     0  01:44      0.15    0.16    1.00
  YS02001887YS02001890 CONDUIT   1021.31     0  01:50      1.30    1.75    1.00
  YS02001890YS02001895 CONDUIT    529.71     0  01:45      0.67    0.25    1.00
  YS02001895YS02001898 CONDUIT    530.03     0  01:45      0.67    0.92    1.00
  YS02001898YS02001901 CONDUIT    530.69     0  01:45      0.68    0.34    1.00
  YS02001901YS02001904 CONDUIT    530.91     0  01:45      0.68    0.82    1.00
  YS02001904YS02001907 CONDUIT    531.69     0  01:45      0.68    0.19    1.00
  YS02001907YS02006553 CONDUIT    798.41     0  02:11      0.89    0.94    1.00
  YS02001910YS02001907 CONDUIT   1686.20     0  01:51      2.15    0.95    1.00
  YS02001915YS02001910 CONDUIT   1686.42     0  01:51      2.15    0.84    1.00
  YS02001918YS02001915 CONDUIT    561.37     0  01:45      0.71    0.31    1.00
  YS02001920YS02001918 CONDUIT    555.96     0  01:52      0.71    0.54    1.00
  YS02001923YS02001920 CONDUIT    552.96     0  01:52      0.72    0.25    1.00
  YS02001926YS02001923 CONDUIT    723.11     0  01:46      1.16    1.03    1.00
  YS02001929YS02001926 CONDUIT    552.10     0  01:52      1.19    0.26    1.00
  YS02006553YS02006556 CONDUIT    798.98     0  02:12      1.02    0.68    1.00
  YS02006556YS02006558 CONDUIT    800.13     0  02:12      1.02    0.63    1.00
  YS02006558YS02006561 CONDUIT   1172.57     0  01:45      4.15    2.59    1.00
  YS02006561YS02001783 CONDUIT   1170.93     0  01:49      2.33    0.61    1.00
  YS02163301YS02001633 CONDUIT    926.78     0  01:45      1.18    0.87    1.00
  YS02163601YS02164001 CONDUIT   1434.37     0  01:45      1.83    1.27    1.00
  YS02164001YS02001641 CONDUIT   1433.32     0  01:45      1.82    1.96    1.00
  CC-R1                PUMP       683.00     0  00:00              1.00
  CC-R2                PUMP       683.00     0  00:00              1.00
  CC-S1                PUMP       200.00     0  00:00              1.00
  CC-S2                PUMP       200.00     0  00:00              1.00
  JK-R1                PUMP      1000.00     0  00:00              1.00
  JK-R2                PUMP      1000.00     0  00:00              1.00
  JK-S                 PUMP       300.00     0  00:00              1.00
  
  
  ***************************
  Flow Classification Summary
  ***************************
  
  -------------------------------------------------------------------------------------
                      Adjusted    ---------- Fraction of Time in Flow Class ---------- 
                       /Actual         Up    Down  Sub   Sup   Up    Down  Norm  Inlet 
  Conduit               Length    Dry  Dry   Dry   Crit  Crit  Crit  Crit  Ltd   Ctrl  
  -------------------------------------------------------------------------------------
  1                       1.00   0.00  0.00  0.00  0.00  1.00  0.00  0.00  0.40  0.00
  WS02003060WS02003069    1.00   0.00  0.00  0.00  0.98  0.02  0.00  0.00  0.69  0.00
  WS02003066WSF200        1.00   0.13  0.00  0.00  0.00  0.87  0.00  0.00  0.76  0.00
  WS02003067WS02003066    1.00   0.10  0.02  0.00  0.88  0.00  0.00  0.00  0.00  0.00
  WS02003069WS02003072    1.00   0.00  0.00  0.00  0.99  0.01  0.00  0.00  0.77  0.00
  WS02003072WS02003073    1.00   0.00  0.00  0.00  0.00  0.00  0.00  1.00  0.00  0.00
  WS02004401WS02004402    1.00   0.02  0.00  0.00  0.98  0.00  0.00  0.00  0.00  0.00
  WS02004402WS02004403    1.00   0.02  0.00  0.00  0.97  0.00  0.00  0.00  0.00  0.00
  WS02004403WS02004404    1.00   0.00  0.03  0.00  0.97  0.00  0.00  0.00  0.00  0.00
  WS02004404WS02004405    1.00   0.00  0.00  0.00  1.00  0.00  0.00  0.00  0.01  0.00
  WS02004405WS02004406    1.00   0.00  0.00  0.00  1.00  0.00  0.00  0.00  0.00  0.00
  WS02004406WS02004407    1.00   0.00  0.05  0.00  0.95  0.00  0.00  0.00  0.00  0.00
  WS02004407WS02004409    1.00   0.05  0.00  0.00  0.94  0.01  0.00  0.00  0.95  0.00
  WS02004409WS02004410    1.00   0.05  0.00  0.00  0.95  0.00  0.00  0.00  0.03  0.00
  WS02004410WS02004411    1.00   0.05  0.00  0.00  0.95  0.00  0.00  0.00  0.01  0.00
  WS02004411WS02004412    1.00   0.05  0.00  0.00  0.95  0.00  0.00  0.00  0.00  0.00
  WS02004412WS02004413    1.00   0.05  0.00  0.00  0.94  0.00  0.00  0.00  0.01  0.00
  WS02004413WS02003067    1.00   0.06  0.04  0.00  0.00  0.00  0.90  0.00  0.00  0.00
  WS02006109WS02006110    1.00   0.00  0.01  0.00  0.98  0.00  0.01  0.00  0.00  0.00
  WS02006110WS02006113    1.00   0.01  0.01  0.00  0.98  0.00  0.00  0.00  0.00  0.00
  WS02006111WS02006112    1.00   0.02  0.00  0.00  0.98  0.00  0.00  0.00  0.98  0.00
  WS02006112WS02006115    1.00   0.02  0.00  0.00  0.97  0.00  0.00  0.00  0.00  0.00
  WS02006113WS02006111    1.00   0.02  0.00  0.00  0.00  0.98  0.00  0.00  0.15  0.00
  WS02006115WS02006116    1.00   0.02  0.00  0.00  0.97  0.00  0.00  0.01  0.00  0.00
  WS02006116WS02004401    1.00   0.02  0.00  0.00  0.98  0.00  0.00  0.00  0.00  0.00
  WS02006228WS02006109    1.00   0.00  0.00  0.00  1.00  0.00  0.00  0.00  0.00  0.00
  WS02006229WS02006228    1.00   0.00  0.00  0.00  0.99  0.00  0.00  0.01  0.00  0.00
  WS02006230WS02006229    1.00   0.00  0.00  0.00  0.99  0.00  0.00  0.01  0.02  0.00
  WS02006231WS02006230    1.00   0.00  0.00  0.00  0.22  0.00  0.77  0.00  0.00  0.00
  WS02006232WS02006231    1.00   0.00  0.00  0.00  0.99  0.00  0.01  0.00  0.00  0.00
  WS02006234WS02006232    1.00   0.00  0.00  0.00  1.00  0.00  0.00  0.00  0.05  0.00
  WS02006235WS02006234    1.00   0.00  0.00  0.00  0.92  0.00  0.08  0.00  0.00  0.00
  WS02006238WS02006235    1.00   0.00  0.00  0.00  1.00  0.00  0.00  0.00  0.00  0.00
  WS02006239WS02006238    1.00   0.00  0.00  0.00  1.00  0.00  0.00  0.00  0.16  0.00
  WS02006240WS02006239    1.00   0.00  0.00  0.00  0.71  0.00  0.00  0.29  0.04  0.00
  WS02006242WS02006240    1.00   0.00  0.00  0.00  0.99  0.00  0.01  0.00  0.00  0.00
  WS02006243WS02006242    1.00   0.00  0.00  0.00  0.99  0.00  0.00  0.01  0.54  0.00
  WS02006245WS02006243    1.00   0.00  0.00  0.00  0.81  0.00  0.00  0.18  0.01  0.00
  WS02006247WS02006245    1.00   0.00  0.00  0.00  0.97  0.00  0.00  0.03  0.00  0.00
  WS02006248WS02006247    1.00   0.00  0.00  0.00  0.98  0.00  0.00  0.02  0.47  0.00
  WS02006249WS02006248    1.00   0.00  0.00  0.00  0.47  0.00  0.53  0.00  0.00  0.00
  WS02006251WS02006249    1.00   0.00  0.00  0.00  0.99  0.01  0.00  0.00  0.54  0.00
  WS02006252WS02006251    1.00   0.00  0.48  0.00  0.12  0.00  0.40  0.00  0.00  0.00
  WS02006256WS02006235    1.00   0.00  0.00  0.00  0.98  0.02  0.00  0.00  0.00  0.00
  WSF200WS02003060        1.00   0.00  0.13  0.00  0.31  0.57  0.00  0.00  0.54  0.00
  YS02001580YS02001583    1.00   0.21  0.58  0.00  0.21  0.00  0.00  0.00  0.67  0.00
  YS02001583YS02001586    1.00   0.42  0.32  0.00  0.26  0.00  0.00  0.00  0.67  0.00
  YS02001586YS02001590    1.00   0.13  0.00  0.00  0.43  0.04  0.00  0.41  0.35  0.00
  YS02001590YS02001593    1.00   0.13  0.01  0.00  0.13  0.00  0.74  0.00  0.00  0.00
  YS02001593YS02001596    1.00   0.13  0.00  0.00  0.15  0.01  0.00  0.71  0.02  0.00
  YS02001596YS02001600    1.00   0.14  0.00  0.00  0.21  0.01  0.00  0.65  0.04  0.00
  YS02001600YS02001601    1.00   0.13  0.01  0.00  0.86  0.00  0.00  0.00  0.60  0.00
  YS02001601YS02001602    1.00   0.13  0.01  0.00  0.87  0.00  0.00  0.00  0.00  0.00
  YS02001602YS02001605    1.00   0.13  0.00  0.00  0.86  0.00  0.00  0.00  0.00  0.00
  YS02001605YS02001607    1.00   0.14  0.00  0.00  0.86  0.00  0.00  0.00  0.00  0.00
  YS02001607YS02001610    1.00   0.13  0.01  0.00  0.86  0.00  0.00  0.00  0.01  0.00
  YS02001610YS02001613    1.00   0.13  0.00  0.00  0.87  0.00  0.00  0.00  0.00  0.00
  YS02001613YS02001616    1.00   0.13  0.00  0.00  0.87  0.00  0.00  0.00  0.00  0.00
  YS02001616YS02001619    1.00   0.13  0.00  0.00  0.87  0.00  0.00  0.00  0.00  0.00
  YS02001619YS02001622    1.00   0.13  0.00  0.00  0.87  0.00  0.00  0.00  0.29  0.00
  YS02001622YS02001625    1.00   0.13  0.00  0.00  0.87  0.00  0.00  0.00  0.04  0.00
  YS02001625YS02001629    1.00   0.13  0.05  0.00  0.17  0.00  0.65  0.00  0.00  0.00
  YS02001629YS02163301    1.00   0.15  0.01  0.00  0.84  0.00  0.00  0.00  0.00  0.00
  YS02001633YS02163601    1.00   0.00  0.01  0.00  0.99  0.00  0.00  0.00  0.15  0.00
  YS02001641YS02001644    1.00   0.00  0.01  0.00  0.99  0.00  0.00  0.00  0.00  0.00
  YS02001644YS02001647    1.00   0.00  0.17  0.00  0.83  0.00  0.00  0.00  0.00  0.00
  YS02001647YS02001649    1.00   0.00  0.17  0.00  0.57  0.26  0.00  0.00  0.57  0.00
  YS02001649YS02001757    1.00   0.00  0.00  0.00  0.75  0.25  0.00  0.00  0.43  0.00
  YS02001652YS02001649    1.00   0.00  0.00  0.00  0.97  0.03  0.00  0.00  0.72  0.00
  YS02001655YS02001652    1.00   0.00  0.00  0.00  0.20  0.01  0.00  0.79  0.05  0.00
  YS02001658YS02001655    1.00   0.00  0.14  0.00  0.68  0.18  0.00  0.00  0.66  0.00
  YS02001661YS02001658    1.00   0.14  0.00  0.00  0.52  0.34  0.00  0.00  0.70  0.00
  YS02001664YS02001661    1.00   0.13  0.00  0.00  0.78  0.10  0.00  0.00  0.85  0.00
  YS02001745YS02001748    1.00   0.00  0.00  0.00  0.12  0.01  0.00  0.88  0.05  0.00
  YS02001748YS02001751    1.00   0.00  0.00  0.00  0.84  0.16  0.00  0.00  0.77  0.00
  YS02001751YS02001754    1.00   0.00  0.00  0.00  0.19  0.00  0.00  0.81  0.04  0.00
  YS02001754YS02001757    1.00   0.00  0.00  0.00  1.00  0.00  0.00  0.00  0.78  0.00
  YS02001757CaochengTiaoxuchi    1.00   0.00  0.00  0.00  0.98  0.02  0.00  0.00  0.76  0.00
  YS02001759YS02001757    1.00   0.00  0.00  0.00  1.00  0.00  0.00  0.00  0.62  0.00
  YS02001762YS02001759    1.00   0.00  0.00  0.00  1.00  0.00  0.00  0.00  0.03  0.00
  YS02001765YS02001762    1.00   0.00  0.00  0.00  1.00  0.00  0.00  0.00  0.70  0.00
  YS02001767YS02001765    1.00   0.00  0.00  0.00  1.00  0.00  0.00  0.00  0.00  0.00
  YS02001770YS02001767    1.00   0.00  0.00  0.00  1.00  0.00  0.00  0.00  0.00  0.00
  YS02001774YS02001770    1.00   0.00  0.13  0.00  0.70  0.00  0.17  0.00  0.03  0.00
  YS02001779YS02001774    1.00   0.00  0.00  0.00  1.00  0.00  0.00  0.00  0.77  0.00
  YS02001783YS02001784    1.00   0.00  0.18  0.00  0.82  0.00  0.00  0.00  0.55  0.00
  YS02001784YS02001785    1.00   0.00  0.00  0.00  1.00  0.00  0.00  0.00  0.16  0.00
  YS02001786YS02001788    1.00   0.00  0.00  0.00  0.80  0.20  0.00  0.00  0.00  0.00
  YS02001788YS02001790    1.00   0.00  0.00  0.00  0.21  0.79  0.00  0.00  0.80  0.00
  YS02001790YS02001791    1.00   0.00  0.00  0.00  0.01  0.99  0.00  0.00  0.16  0.00
  YS02001791YS02001793    1.00   0.00  0.00  0.00  0.00  1.00  0.00  0.00  0.01  0.00
  YS02001793JiankangQianchi    1.00   0.00  0.00  0.00  0.96  0.03  0.00  0.00  0.96  0.00
  YS02001882YS02001884    1.00   0.15  0.01  0.00  0.84  0.00  0.00  0.00  0.00  0.00
  YS02001884YS02001887    1.00   0.06  0.05  0.00  0.89  0.00  0.00  0.00  0.00  0.00
  YS02001887YS02001890    1.00   0.00  0.00  0.00  0.97  0.00  0.03  0.00  0.00  0.00
  YS02001890YS02001895    1.00   0.00  0.16  0.00  0.84  0.00  0.00  0.00  0.00  0.00
  YS02001895YS02001898    1.00   0.16  0.00  0.00  0.82  0.00  0.02  0.00  0.00  0.00
  YS02001898YS02001901    1.00   0.16  0.00  0.00  0.84  0.00  0.00  0.00  0.01  0.00
  YS02001901YS02001904    1.00   0.16  0.00  0.00  0.84  0.00  0.00  0.00  0.00  0.00
  YS02001904YS02001907    1.00   0.00  0.16  0.00  0.84  0.00  0.00  0.00  0.00  0.00
  YS02001907YS02006553    1.00   0.00  0.02  0.00  0.98  0.00  0.00  0.00  0.00  0.00
  YS02001910YS02001907    1.00   0.00  0.00  0.00  0.97  0.00  0.00  0.03  0.12  0.00
  YS02001915YS02001910    1.00   0.00  0.00  0.00  0.97  0.03  0.00  0.00  0.15  0.00
  YS02001918YS02001915    1.00   0.00  0.01  0.00  0.98  0.02  0.00  0.00  0.74  0.00
  YS02001920YS02001918    1.00   0.00  0.01  0.00  0.99  0.00  0.00  0.00  0.00  0.00
  YS02001923YS02001920    1.00   0.00  0.00  0.00  1.00  0.00  0.00  0.00  0.92  0.00
  YS02001926YS02001923    1.00   0.00  0.07  0.00  0.07  0.00  0.86  0.00  0.00  0.00
  YS02001929YS02001926    1.00   0.00  0.13  0.00  0.87  0.00  0.00  0.00  0.81  0.00
  YS02006553YS02006556    1.00   0.01  0.00  0.00  0.99  0.00  0.00  0.00  0.03  0.00
  YS02006556YS02006558    1.00   0.00  0.00  0.00  1.00  0.00  0.00  0.00  0.00  0.00
  YS02006558YS02006561    1.00   0.17  0.00  0.00  0.06  0.76  0.00  0.00  0.18  0.00
  YS02006561YS02001783    1.00   0.17  0.00  0.00  0.09  0.73  0.00  0.00  0.68  0.00
  YS02163301YS02001633    1.00   0.00  0.15  0.00  0.85  0.00  0.00  0.00  0.00  0.00
  YS02163601YS02164001    1.00   0.00  0.08  0.00  0.92  0.00  0.00  0.00  0.00  0.00
  YS02164001YS02001641    1.00   0.01  0.07  0.00  0.92  0.00  0.00  0.00  0.05  0.00
  
  
  *************************
  Conduit Surcharge Summary
  *************************
  
  ----------------------------------------------------------------------------
                                                           Hours        Hours 
                         --------- Hours Full --------   Above Full   Capacity
  Conduit                Both Ends  Upstream  Dnstream   Normal Flow   Limited
  ----------------------------------------------------------------------------
  WS02003072WS02003073        0.01      0.01      0.01      1.23         0.01
  WS02004403WS02004404        0.01      0.01      0.02      0.01         0.01
  WS02004404WS02004405        0.01      0.02      0.01      3.42         0.01
  WS02004405WS02004406        0.01      0.01      0.01      0.71         0.01
  WS02006109WS02006110        0.76      0.76      1.70      0.86         0.01
  WS02006110WS02006113        0.01      0.01      1.69      0.01         0.01
  WS02006111WS02006112        0.01      0.01      2.01      0.01         0.01
  WS02006112WS02006115        0.01      0.01      0.91      0.01         0.01
  WS02006228WS02006109        1.68      1.70      1.68      2.34         1.68
  WS02006229WS02006228        1.68      1.68      1.68      1.91         1.67
  WS02006230WS02006229        1.73      1.83      1.73      4.26         1.73
  WS02006231WS02006230        0.77      0.77      0.94      3.73         0.01
  WS02006232WS02006231        0.88      0.88      1.70      0.95         0.01
  WS02006234WS02006232        1.63      1.63      1.70      0.94         0.94
  WS02006235WS02006234        1.26      1.27      1.64      3.42         0.02
  WS02006238WS02006235        1.66      1.66      1.69      0.01         0.01
  WS02006239WS02006238        1.68      1.69      1.68      1.88         1.49
  WS02006240WS02006239        1.66      1.67      1.66      1.89         1.40
  WS02006242WS02006240        1.67      1.67      1.74      2.13         0.01
  WS02006243WS02006242        1.67      1.67      1.69      0.01         0.04
  WS02006245WS02006243        1.67      1.67      1.67      1.17         0.98
  WS02006247WS02006245        1.67      1.67      1.67      3.05         1.66
  WS02006248WS02006247        1.66      1.66      1.67      0.01         0.04
  WS02006249WS02006248        1.66      1.66      1.66      2.99         0.01
  WS02006251WS02006249        1.66      1.66      1.66      2.07         1.59
  WS02006252WS02006251        2.16      2.16      2.17      2.16         0.01
  WS02006256WS02006235        3.55      3.59      6.83      1.25         0.01
  YS02001580YS02001583        0.69      0.69      0.75      0.01         0.01
  YS02001583YS02001586        0.70      0.70      0.84      0.01         0.01
  YS02001586YS02001590        0.84      0.84      0.91      0.01         0.01
  YS02001590YS02001593        0.91      0.91      0.93      0.97         0.01
  YS02001593YS02001596        0.92      0.92      1.02      0.01         0.01
  YS02001596YS02001600        1.07      1.07      1.18      0.01         0.01
  YS02001600YS02001601        1.24      1.24      1.53      0.01         0.01
  YS02001601YS02001602        1.43      1.43      1.56      1.17         0.01
  YS02001602YS02001605        1.38      1.38      1.43      2.27         0.01
  YS02001605YS02001607        1.33      1.38      1.33      1.50         1.33
  YS02001607YS02001610        0.90      0.90      0.93      0.01         0.01
  YS02001610YS02001613        0.89      0.89      0.93      0.01         0.01
  YS02001613YS02001616        0.85      0.85      0.89      0.01         0.01
  YS02001616YS02001619        0.84      0.84      0.85      0.01         0.06
  YS02001619YS02001622        0.83      0.84      0.83      0.90         0.80
  YS02001622YS02001625        0.83      0.83      1.02      0.01         0.01
  YS02001625YS02001629        0.79      0.79      1.02      0.01         0.01
  YS02001629YS02163301        1.02      1.02      1.03      0.07         0.14
  YS02001633YS02163601        1.05      1.05      1.08      0.34         0.32
  YS02001641YS02001644        0.97      1.00      0.97      1.58         0.96
  YS02001644YS02001647        0.77      0.77      0.97      0.04         0.01
  YS02001647YS02001649        0.77      0.77      0.90      0.01         0.01
  YS02001649YS02001757        0.90      0.90      0.98      0.05         0.03
  YS02001652YS02001649        0.72      0.72      0.90      0.01         0.01
  YS02001655YS02001652        0.50      0.50      0.69      0.01         0.01
  YS02001658YS02001655        0.26      0.26      0.50      0.01         0.01
  YS02001661YS02001658        0.09      0.09      0.26      0.01         0.01
  YS02001664YS02001661        0.01      0.01      0.13      0.01         0.01
  YS02001745YS02001748        0.01      0.01      0.21      0.01         0.01
  YS02001748YS02001751        0.25      0.25      0.35      0.01         0.01
  YS02001751YS02001754        0.35      0.35      0.59      0.01         0.01
  YS02001754YS02001757        0.63      0.63      0.98      0.01         0.01
  YS02001757CaochengTiaoxuchi        0.92      0.98      1.68      0.40         0.33
  YS02001759YS02001757        0.87      0.87      0.98      0.08         0.07
  YS02001762YS02001759        0.84      0.84      0.87      0.01         0.02
  YS02001765YS02001762        0.79      0.79      0.84      0.01         0.01
  YS02001767YS02001765        0.75      0.75      0.79      0.01         0.02
  YS02001770YS02001767        0.75      0.75      0.75      0.58         0.54
  YS02001774YS02001770        0.72      0.72      0.82      0.01         0.01
  YS02001779YS02001774        0.58      0.58      0.82      0.01         0.01
  YS02001783YS02001784        0.57      0.60      0.57      0.73         0.57
  YS02001784YS02001785        0.47      0.57      0.47      0.97         0.47
  YS02001786YS02001788        0.01      0.47      0.01      0.83         0.01
  YS02001790YS02001791        0.01      0.01      0.01      0.56         0.01
  YS02001793JiankangQianchi        0.01      0.01      7.24      0.01         0.01
  YS02001882YS02001884        0.54      0.54      0.55      0.01         0.01
  YS02001884YS02001887        0.57      0.57      0.59      0.01         0.01
  YS02001887YS02001890        0.60      0.60      0.61      0.16         0.01
  YS02001890YS02001895        0.53      0.53      0.63      0.01         0.01
  YS02001895YS02001898        0.53      0.53      0.53      0.01         0.01
  YS02001898YS02001901        0.53      0.53      0.57      0.01         0.01
  YS02001901YS02001904        0.56      0.56      0.57      0.01         0.01
  YS02001904YS02001907        0.56      0.56      0.81      0.01         0.01
  YS02001907YS02006553        0.98      0.98      1.06      0.01         0.01
  YS02001910YS02001907        0.63      0.63      0.79      0.01         0.01
  YS02001915YS02001910        0.54      0.54      0.63      0.01         0.01
  YS02001918YS02001915        0.46      0.46      0.54      0.01         0.01
  YS02001920YS02001918        0.46      0.46      0.47      0.01         0.01
  YS02001923YS02001920        0.41      0.41      0.47      0.01         0.01
  YS02001926YS02001923        0.17      0.17      0.19      0.01         0.01
  YS02001929YS02001926        0.02      0.02      0.19      0.01         0.01
  YS02006553YS02006556        0.71      0.71      0.81      0.01         0.01
  YS02006556YS02006558        0.76      0.76      0.83      0.01         0.01
  YS02006558YS02006561        0.49      0.70      0.49      0.92         0.49
  YS02006561YS02001783        0.43      0.43      0.60      0.01         0.01
  YS02163301YS02001633        1.03      1.03      1.06      0.01         0.01
  YS02163601YS02164001        1.00      1.00      1.08      0.05         0.01
  YS02164001YS02001641        1.00      1.00      1.00      0.74         0.70
  
  
  ***************
  Pumping Summary
  ***************
  
  ---------------------------------------------------------------------------------------------------------
                                                  Min       Avg       Max     Total     Power    % Time Off
                        Percent   Number of      Flow      Flow      Flow    Volume     Usage    Pump Curve
  Pump                 Utilized   Start-Ups       LPS       LPS       LPS  10^6 ltr     Kw-hr    Low   High
  ---------------------------------------------------------------------------------------------------------
  CC-R1                   23.73          13      0.00    683.00    683.00     4.667     86.50    0.0   20.3
  CC-R2                   17.94          13      0.00    683.00    683.00     3.529     66.03    0.0   21.8
  CC-S1                   35.76          13      0.00    200.00    200.00     2.060     11.91    0.0    0.0
  CC-S2                   30.51          21      0.00    200.00    200.00     1.758     10.21    0.0    0.0
  JK-R1                    4.51           8      0.00   1000.00   1000.00     1.300     13.42    0.0    0.0
  JK-R2                    6.06          12      0.00   1000.00   1000.00     1.746     16.87    0.0    0.0
  JK-S                    15.36          27      0.00    300.00    300.00     1.327     20.23    0.0    0.0
  

  Analysis begun on:  Wed Dec 25 13:04:44 2024
  Analysis ended on:  Wed Dec 25 13:04:45 2024
  Total elapsed time: 00:00:01