
  EPA STORM WATER MANAGEMENT MODEL - VERSION 5.2 (Build 5.2.4)
  PYSWMM TOOLKIT API - VERSION v1.0 (2023-11-27)
  ------------------------------------------------------------

  
  ****************
  Analysis Options
  ****************
  Flow Units ............... CMS
  Process Models:
    Rainfall/Runoff ........ YES
    RDII ................... NO
    Snowmelt ............... NO
    Groundwater ............ NO
    Flow Routing ........... YES
    Ponding Allowed ........ YES
    Water Quality .......... NO
  Infiltration Method ...... HORTON
  Flow Routing Method ...... DYNWAVE
  Surcharge Method ......... EXTRAN
  Starting Date ............ 01/01/2000 08:00:00
  Ending Date .............. 01/01/2000 16:00:00
  Antecedent Dry Days ...... 0.0
  Report Time Step ......... 00:05:00
  Wet Time Step ............ 00:05:00
  Dry Time Step ............ 00:05:00
  Routing Time Step ........ 30.00 sec
  Variable Time Step ....... YES
  Maximum Trials ........... 8
  Number of Threads ........ 1
  Head Tolerance ........... 0.001500 m
  
  
  **************************        Volume         Depth
  Runoff Quantity Continuity     hectare-m            mm
  **************************     ---------       -------
  Total Precipitation ......         3.169        17.584
  Evaporation Loss .........         0.000         0.000
  Infiltration Loss ........         0.000         0.000
  Surface Runoff ...........         3.201        17.766
  Final Storage ............         0.025         0.136
  Continuity Error (%) .....        -1.813
  
  
  **************************        Volume        Volume
  Flow Routing Continuity        hectare-m      10^6 ltr
  **************************     ---------     ---------
  Dry Weather Inflow .......         0.399         3.989
  Wet Weather Inflow .......         3.203        32.029
  Groundwater Inflow .......         0.000         0.000
  RDII Inflow ..............         0.000         0.000
  External Inflow ..........         0.000         0.000
  External Outflow .........         0.537         5.374
  Flooding Loss ............         2.054        20.541
  Evaporation Loss .........         0.000         0.000
  Exfiltration Loss ........         0.000         0.000
  Initial Stored Volume ....         0.000         0.000
  Final Stored Volume ......         0.771         7.711
  Continuity Error (%) .....         6.637
  
  
  *************************
  Highest Continuity Errors
  *************************
  Node T2 (29.11%)
  Node T4 (22.38%)
  Node T3 (15.63%)
  Node T5 (13.60%)
  Node T1 (7.34%)
  
  
  ***************************
  Time-Step Critical Elements
  ***************************
  Link C15 (29.48%)
  
  
  ********************************
  Highest Flow Instability Indexes
  ********************************
  Link C13 (10)
  Link C12 (2)
  Link C11 (2)
  Link V6 (2)
  Link C5 (2)
  
  
  *********************************
  Most Frequent Nonconverging Nodes
  *********************************
  Node Out_to_WWTP (2.82%)
  Node CSO7 (1.55%)
  Node J4 (1.46%)
  Node CSO9 (1.09%)
  Node J8 (0.82%)
  
  
  *************************
  Routing Time Step Summary
  *************************
  Minimum Time Step           :     0.20 sec
  Average Time Step           :    25.93 sec
  Maximum Time Step           :    30.00 sec
  % of Time in Steady State   :     0.00
  Average Iterations per Step :     2.57
  % of Steps Not Converging   :     2.82
  Time Step Frequencies       :
     30.000 - 13.228 sec      :    82.94 %
     13.228 -  5.833 sec      :    16.88 %
      5.833 -  2.572 sec      :     0.00 %
      2.572 -  1.134 sec      :     0.09 %
      1.134 -  0.500 sec      :     0.09 %
  
  
  ***************************
  Subcatchment Runoff Summary
  ***************************
  
  ------------------------------------------------------------------------------------------------------------------------------
                            Total      Total      Total      Total     Imperv       Perv      Total       Total     Peak  Runoff
                           Precip      Runon       Evap      Infil     Runoff     Runoff     Runoff      Runoff   Runoff   Coeff
  Subcatchment                 mm         mm         mm         mm         mm         mm         mm    10^6 ltr      CMS
  ------------------------------------------------------------------------------------------------------------------------------
  SC01                      12.55       0.00       0.00       0.00      12.78       0.00      12.78        4.22     4.62   1.019
  SC02                      10.72       0.00       0.00       0.00      10.85       0.00      10.85        2.47     2.56   1.012
  SC03                      22.55       0.00       0.00       0.00      22.95       0.00      22.95        4.13     4.70   1.018
  SC04                      10.72       0.00       0.00       0.00      10.65       0.00      10.65        0.73     0.52   0.993
  SC05                      12.55       0.00       0.00       0.00      12.76       0.00      12.76        1.99     2.13   1.017
  SC06                      25.48       0.00       0.00       0.00      25.53       0.00      25.53        8.31     5.99   1.002
  SC07                      10.72       0.00       0.00       0.00      10.65       0.00      10.65        0.51     0.36   0.993
  SC08                      22.55       0.00       0.00       0.00      22.80       0.00      22.80        6.39     6.21   1.011
  SC09                      25.48       0.00       0.00       0.00      25.77       0.00      25.77        1.78     1.56   1.011
  SC010                     12.55       0.00       0.00       0.00      12.70       0.00      12.70        1.49     1.47   1.012
  
  
  ******************
  Node Depth Summary
  ******************
  
  ---------------------------------------------------------------------------------
                                 Average  Maximum  Maximum  Time of Max    Reported
                                   Depth    Depth      HGL   Occurrence   Max Depth
  Node                 Type       Meters   Meters   Meters  days hr:min      Meters
  ---------------------------------------------------------------------------------
  J1                   JUNCTION     0.09     0.59    34.59     0  02:55        0.56
  J3                   JUNCTION     0.12     0.16    18.16     0  05:29        0.16
  CSO7                 JUNCTION     0.27     1.20    35.20     0  02:41        1.20
  J5                   JUNCTION     0.08     0.26    32.26     0  02:50        0.25
  CSO9                 JUNCTION     0.41     2.00    42.00     0  02:40        2.00
  J8                   JUNCTION     0.21     3.00    39.00     0  02:53        3.00
  CSO8                 JUNCTION     0.43     2.00    34.00     0  02:32        2.00
  J10                  JUNCTION     0.13     0.68    29.68     0  02:45        0.68
  J13                  JUNCTION     0.08     0.42    29.42     0  02:50        0.41
  J15                  JUNCTION     0.21     0.90    15.90     0  02:58        0.86
  J16                  JUNCTION     0.08     0.51    30.51     0  02:55        0.51
  CSO10                JUNCTION     0.20     1.00    31.00     0  02:46        1.00
  J12                  JUNCTION     0.63     1.08    27.08     0  03:12        1.04
  J4                   JUNCTION     0.19     0.82    33.82     0  02:46        0.74
  J6                   JUNCTION     0.06     0.12    25.12     0  05:25        0.12
  J2                   JUNCTION     0.06     0.08    25.08     0  03:50        0.08
  J19                  JUNCTION     0.13     0.17     8.17     0  02:57        0.17
  J9                   JUNCTION     0.10     0.16    29.16     0  03:05        0.16
  J14                  JUNCTION     0.13     0.19    20.19     0  05:12        0.19
  J17                  JUNCTION     0.06     0.15    20.15     0  07:15        0.15
  J7                   JUNCTION     0.09     0.23    39.23     0  03:19        0.23
  J11                  JUNCTION     0.11     0.30    31.30     0  03:11        0.30
  J18                  JUNCTION     0.06     0.16    29.16     0  03:14        0.16
  Out_to_WWTP          OUTFALL      0.13     0.17     6.17     0  02:57        0.17
  T5                   STORAGE      3.13     5.00    32.00     0  02:56        5.00
  T4                   STORAGE      2.98     5.00    32.00     0  03:40        5.00
  T6                   STORAGE      3.24     5.00    36.00     0  02:50        5.00
  T3                   STORAGE      3.30     5.00    27.00     0  03:02        5.00
  T2                   STORAGE      3.21     5.00    26.00     0  03:00        5.00
  T1                   STORAGE      3.26     5.00    15.00     0  02:56        5.00
  
  
  *******************
  Node Inflow Summary
  *******************
  
  -------------------------------------------------------------------------------------------------
                                  Maximum  Maximum                  Lateral       Total        Flow
                                  Lateral    Total  Time of Max      Inflow      Inflow     Balance
                                   Inflow   Inflow   Occurrence      Volume      Volume       Error
  Node                 Type           CMS      CMS  days hr:min    10^6 ltr    10^6 ltr     Percent
  -------------------------------------------------------------------------------------------------
  J1                   JUNCTION     2.147    2.147     0  02:55        2.56        2.56       0.046
  J3                   JUNCTION     0.000    0.267     0  05:27           0        4.43       1.032
  CSO7                 JUNCTION     0.370    0.370     0  02:50       0.799       0.799       0.059
  J5                   JUNCTION     0.526    0.602     0  02:50       0.864        1.41       0.096
  CSO9                 JUNCTION     1.568    1.568     0  02:50        1.98        1.98      -0.016
  J8                   JUNCTION     6.028    6.155     0  02:55        9.27        9.92      -0.037
  CSO8                 JUNCTION     6.220    6.220     0  02:45        6.68        6.68       0.005
  J10                  JUNCTION     4.711    5.196     0  02:45        4.51        6.51      -0.140
  J13                  JUNCTION     2.579    2.579     0  02:50        2.94        2.94      -0.379
  J15                  JUNCTION     0.000    4.988     0  02:55           0        10.6       1.069
  J16                  JUNCTION     4.642    4.642     0  02:55        4.78        4.78      -0.163
  CSO10                JUNCTION     1.472    1.472     0  02:55        1.63        1.63      -0.009
  J12                  JUNCTION     0.000    5.102     0  02:45           0         8.4       5.067
  J4                   JUNCTION     0.000    0.085     0  02:44           0        0.55       0.597
  J6                   JUNCTION     0.000    0.079     0  05:20           0       0.579       0.681
  J2                   JUNCTION     0.000    0.039     0  02:56           0       0.782       0.679
  J19                  JUNCTION     0.000    0.271     0  02:56           0        5.39       0.234
  J9                   JUNCTION     0.000    0.175     0  02:50           0        1.77       1.002
  J14                  JUNCTION     0.000    0.190     0  05:10           0        3.09       0.315
  J17                  JUNCTION     0.000    0.136     0  07:10           0        0.69       0.978
  J7                   JUNCTION     0.000    0.127     0  02:55           0       0.653       0.469
  J11                  JUNCTION     0.000    0.487     0  03:10           0           2       0.437
  J18                  JUNCTION     0.000    0.202     0  03:14           0       0.733       0.136
  Out_to_WWTP          OUTFALL      0.000    0.271     0  02:57           0        5.37       0.000
  T5                   STORAGE      0.000    2.029     0  02:55           0        2.56      15.735
  T4                   STORAGE      0.000    0.592     0  02:50           0        1.41      28.833
  T6                   STORAGE      0.000    6.138     0  02:55           0        9.92       6.918
  T3                   STORAGE      0.000    4.894     0  02:46           0        7.99      18.520
  T2                   STORAGE      0.000    2.550     0  02:50           0        2.95      41.054
  T1                   STORAGE      0.000    4.049     0  02:54           0        10.5       7.918
  
  
  **********************
  Node Surcharge Summary
  **********************
  
  Surcharging occurs when water rises above the top of the highest conduit.
  ---------------------------------------------------------------------
                                               Max. Height   Min. Depth
                                   Hours       Above Crown    Below Rim
  Node                 Type      Surcharged         Meters       Meters
  ---------------------------------------------------------------------
  CSO7                 JUNCTION        0.72          0.945        0.000
  CSO9                 JUNCTION        0.80          1.682        0.000
  J8                   JUNCTION        0.07          1.500        0.000
  CSO8                 JUNCTION        0.75          1.547        0.000
  CSO10                JUNCTION        0.52          0.560        0.000
  J4                   JUNCTION        0.67          0.520        1.180
  
  
  *********************
  Node Flooding Summary
  *********************
  
  Flooding refers to all water that overflows a node, whether it ponds or not.
  --------------------------------------------------------------------------
                                                             Total   Maximum
                                 Maximum   Time of Max       Flood    Ponded
                        Hours       Rate    Occurrence      Volume     Depth
  Node                 Flooded       CMS   days hr:min    10^6 ltr    Meters
  --------------------------------------------------------------------------
  CSO7                    0.62     0.293      0  02:50       0.248     0.000
  CSO9                    0.65     1.439      0  02:50       1.325     0.000
  J8                      0.01     0.301      0  02:53       0.003     0.000
  CSO8                    0.65     5.724      0  02:45       4.673     0.000
  CSO10                   0.47     1.270      0  02:55       0.900     0.000
  T5                      1.28     1.962      0  02:56       1.025     0.000
  T4                      1.37     0.057      0  03:40       0.081     0.000
  T6                      2.24     5.960      0  02:55       7.002     0.000
  T3                      1.20     1.936      0  03:02       1.151     0.000
  T2                      1.43     0.732      0  03:00       0.503     0.000
  T1                      4.69     3.481      0  02:58       3.617     0.000
  
  
  **********************
  Storage Volume Summary
  **********************
  
  ------------------------------------------------------------------------------------------------
                         Average    Avg   Evap  Exfil     Maximum    Max    Time of Max    Maximum
                          Volume   Pcnt   Pcnt   Pcnt      Volume   Pcnt     Occurrence    Outflow
  Storage Unit           1000 m³   Full   Loss   Loss     1000 m³   Full    days hr:min        CMS
  ------------------------------------------------------------------------------------------------
  T5                       0.313   62.6    0.0    0.0       0.500  100.0       0  02:56      0.039
  T4                       0.298   59.6    0.0    0.0       0.500  100.0       0  03:40      0.079
  T6                       0.389   64.9    0.0    0.0       0.600  100.0       0  02:50      0.175
  T3                       1.715   66.0    0.0    0.0       2.600  100.0       0  03:02      1.100
  T2                       0.641   64.1    0.0    0.0       1.000  100.0       0  03:00      0.136
  T1                       0.456   65.1    0.0    0.0       0.700  100.0       0  02:56      0.271
  
  
  ***********************
  Outfall Loading Summary
  ***********************
  
  -----------------------------------------------------------
                         Flow       Avg       Max       Total
                         Freq      Flow      Flow      Volume
  Outfall Node           Pcnt       CMS       CMS    10^6 ltr
  -----------------------------------------------------------
  Out_to_WWTP           99.00     0.191     0.271       5.374
  -----------------------------------------------------------
  System                99.00     0.191     0.271       5.374
  
  
  ********************
  Link Flow Summary
  ********************
  
  -----------------------------------------------------------------------------
                                 Maximum  Time of Max   Maximum    Max/    Max/
                                  |Flow|   Occurrence   |Veloc|    Full    Full
  Link                 Type          CMS  days hr:min     m/sec    Flow   Depth
  -----------------------------------------------------------------------------
  C1                   CONDUIT     0.039     0  03:45      0.92    0.01    0.12
  C6                   CONDUIT     0.076     0  02:50      1.29    1.21    0.93
  C2                   CONDUIT     0.079     0  05:25      1.62    0.09    0.23
  C9                   CONDUIT     0.127     0  03:20      1.12    0.43    0.73
  C16                  CONDUIT     0.486     0  03:03      1.87    0.05    0.24
  C3                   CONDUIT     0.191     0  05:13      2.16    0.07    0.17
  C19                  CONDUIT     0.134     0  07:15      1.49    0.05    0.48
  C11                  CONDUIT     0.259     0  05:29      1.93    0.01    0.26
  C20                  CONDUIT     4.600     0  02:55      5.90    0.14    0.34
  C22                  CONDUIT     0.202     0  03:14      1.49    0.09    0.60
  C12                  CONDUIT     0.174     0  03:05      0.89    0.01    0.31
  C17                  CONDUIT     5.077     0  02:45      5.14    0.25    0.35
  C10                  CONDUIT     6.138     0  02:55      3.47    0.63    1.00
  C13                  CONDUIT     4.894     0  02:46      2.89    0.29    0.77
  C18                  CONDUIT     2.550     0  02:50      3.36    0.09    0.60
  C23                  CONDUIT     4.049     0  02:54      2.90    0.45    0.80
  C4                   CONDUIT     2.029     0  02:55      3.06    0.49    0.79
  C7                   CONDUIT     0.592     0  02:50      1.44    0.15    0.63
  C14                  CONDUIT     0.271     0  02:57      2.08    0.02    0.09
  C5                   CONDUIT     0.085     0  02:44      1.73    1.45    1.00
  C8                   CONDUIT     0.127     0  02:55      1.97    1.60    0.86
  C15                  CONDUIT     0.487     0  03:10      3.90    1.55    0.83
  C21                  CONDUIT     0.202     0  03:14      1.91    1.16    0.69
  V4                   ORIFICE     0.079     0  05:20                      1.00
  V5                   ORIFICE     0.039     0  02:56                      1.00
  V1                   ORIFICE     0.271     0  02:56                      1.00
  V6                   ORIFICE     0.175     0  02:50                      1.00
  V3                   ORIFICE     0.190     0  05:10                      1.00
  V2                   ORIFICE     0.136     0  07:10                      1.00
  
  
  ***************************
  Flow Classification Summary
  ***************************
  
  -------------------------------------------------------------------------------------
                      Adjusted    ---------- Fraction of Time in Flow Class ---------- 
                       /Actual         Up    Down  Sub   Sup   Up    Down  Norm  Inlet 
  Conduit               Length    Dry  Dry   Dry   Crit  Crit  Crit  Crit  Ltd   Ctrl  
  -------------------------------------------------------------------------------------
  C1                      1.00   0.00  0.00  0.00  0.59  0.41  0.00  0.00  0.95  0.00
  C6                      1.00   0.00  0.00  0.00  0.11  0.89  0.00  0.00  0.00  0.00
  C2                      1.00   0.00  0.00  0.00  0.81  0.19  0.00  0.00  0.98  0.00
  C9                      1.00   0.00  0.00  0.00  1.00  0.00  0.00  0.00  1.00  0.00
  C16                     1.00   0.00  0.00  0.00  0.72  0.28  0.00  0.00  0.53  0.00
  C3                      1.00   0.00  0.01  0.00  0.05  0.95  0.00  0.00  0.14  0.00
  C19                     1.00   0.00  0.00  0.00  0.99  0.01  0.00  0.00  1.00  0.00
  C11                     1.00   0.00  0.00  0.00  0.15  0.85  0.00  0.00  1.00  0.00
  C20                     1.00   0.00  0.00  0.00  0.74  0.26  0.00  0.00  0.97  0.00
  C22                     1.00   0.00  0.00  0.00  0.94  0.06  0.00  0.00  1.00  0.00
  C12                     1.00   0.00  0.00  0.00  0.82  0.18  0.00  0.00  1.00  0.00
  C17                     1.00   0.00  0.00  0.00  0.63  0.37  0.00  0.00  0.94  0.00
  C10                     1.00   0.00  0.00  0.00  0.94  0.06  0.00  0.00  0.94  0.00
  C13                     1.00   0.00  0.00  0.00  0.87  0.13  0.00  0.00  0.27  0.00
  C18                     1.00   0.00  0.00  0.00  0.93  0.07  0.00  0.00  0.97  0.00
  C23                     1.00   0.00  0.00  0.00  0.88  0.12  0.00  0.00  0.92  0.00
  C4                      1.00   0.00  0.00  0.00  0.94  0.06  0.00  0.00  0.97  0.00
  C7                      1.00   0.00  0.00  0.00  0.94  0.06  0.00  0.00  0.97  0.00
  C14                     1.00   0.00  0.01  0.00  0.01  0.98  0.00  0.00  0.14  0.00
  C5                      1.00   0.00  0.00  0.00  0.95  0.05  0.00  0.00  0.88  0.00
  C8                      1.00   0.00  0.00  0.00  0.10  0.90  0.00  0.00  0.00  0.00
  C15                     1.00   0.00  0.00  0.00  0.00  1.00  0.00  0.00  0.00  0.00
  C21                     1.00   0.00  0.00  0.00  0.01  0.99  0.00  0.00  0.00  0.00
  
  
  *************************
  Conduit Surcharge Summary
  *************************
  
  ----------------------------------------------------------------------------
                                                           Hours        Hours 
                         --------- Hours Full --------   Above Full   Capacity
  Conduit                Both Ends  Upstream  Dnstream   Normal Flow   Limited
  ----------------------------------------------------------------------------
  C6                          0.01      0.67      0.01      0.60         0.01
  C9                          0.01      0.01      0.36      0.01         0.01
  C22                         0.01      0.01      0.09      0.01         0.01
  C10                         0.07      0.07      5.15      0.01         0.01
  C13                         0.01      0.01      5.17      0.01         0.01
  C18                         0.01      0.01      5.10      0.01         0.01
  C23                         0.01      0.01      5.06      0.01         0.01
  C4                          0.01      0.01      5.11      0.01         0.01
  C7                          0.01      0.01      5.11      0.01         0.01
  C5                          0.66      0.72      0.76      0.71         0.64
  C8                          0.01      0.80      0.01      0.81         0.01
  C15                         0.01      0.75      0.01      0.77         0.01
  C21                         0.01      0.52      0.01      0.50         0.01
  

  Analysis begun on:  Wed Sep 25 16:24:31 2024
  Analysis ended on:  Wed Sep 25 16:24:32 2024
  Total elapsed time: 00:00:01