
  EPA STORM WATER MANAGEMENT MODEL - VERSION 5.2 (Build 5.2.4)
  PYSWMM TOOLKIT API - VERSION v1.0 (2023-11-27)
  ------------------------------------------------------------

  WARNING 04: minimum elevation drop used for Conduit WS02004404WS02004405
  WARNING 03: negative offset ignored for Link YS02001904YS02001907
  
  ****************
  Analysis Options
  ****************
  Flow Units ............... LPS
  Process Models:
    Rainfall/Runoff ........ YES
    RDII ................... NO
    Snowmelt ............... NO
    Groundwater ............ NO
    Flow Routing ........... YES
    Ponding Allowed ........ NO
    Water Quality .......... NO
  Infiltration Method ...... HORTON
  Flow Routing Method ...... DYNWAVE
  Surcharge Method ......... EXTRAN
  Starting Date ............ 08/28/2015 08:00:00
  Ending Date .............. 08/28/2015 16:00:00
  Antecedent Dry Days ...... 8.0
  Report Time Step ......... 00:01:00
  Wet Time Step ............ 00:01:00
  Dry Time Step ............ 00:01:00
  Routing Time Step ........ 30.00 sec
  Variable Time Step ....... YES
  Maximum Trials ........... 8
  Number of Threads ........ 4
  Head Tolerance ........... 0.001500 m
  
  
  **************************        Volume         Depth
  Runoff Quantity Continuity     hectare-m            mm
  **************************     ---------       -------
  Total Precipitation ......         1.966        59.279
  Evaporation Loss .........         0.000         0.000
  Infiltration Loss ........         0.101         3.059
  Surface Runoff ...........         1.832        55.236
  Final Storage ............         0.033         0.996
  Continuity Error (%) .....        -0.020
  
  
  **************************        Volume        Volume
  Flow Routing Continuity        hectare-m      10^6 ltr
  **************************     ---------     ---------
  Dry Weather Inflow .......         0.025         0.251
  Wet Weather Inflow .......         1.832        18.322
  Groundwater Inflow .......         0.000         0.000
  RDII Inflow ..............         0.000         0.000
  External Inflow ..........         0.083         0.834
  External Outflow .........         1.403        14.027
  Flooding Loss ............         0.537         5.368
  Evaporation Loss .........         0.000         0.000
  Exfiltration Loss ........         0.000         0.000
  Initial Stored Volume ....         0.243         2.431
  Final Stored Volume ......         0.246         2.461
  Continuity Error (%) .....        -0.084
  
  
  *************************
  Highest Continuity Errors
  *************************
  Node YS02001583 (-5.62%)
  Node YS02001884 (4.99%)
  
  
  ***************************
  Time-Step Critical Elements
  ***************************
  Link WS02006252WS02006251 (55.12%)
  Link WS02006238WS02006235 (10.69%)
  Link WS02003066WSF200 (8.80%)
  Link WS02004404WS02004405 (6.72%)
  Link YS02001791YS02001793 (6.44%)
  
  
  ********************************
  Highest Flow Instability Indexes
  ********************************
  Link WS02006113WS02006111 (39)
  Link WS02006111WS02006112 (20)
  Link WS02006238WS02006235 (12)
  Link WS02006252WS02006251 (12)
  Link WS02006256WS02006235 (11)
  
  
  *********************************
  Most Frequent Nonconverging Nodes
  *********************************
  Node CC-1 (9.26%)
  Node CC-2 (9.26%)
  Node JK-1 (9.26%)
  Node JK-2 (9.26%)
  Node WSC (9.26%)
  
  
  *************************
  Routing Time Step Summary
  *************************
  Minimum Time Step           :     0.00 sec
  Average Time Step           :     1.70 sec
  Maximum Time Step           :     6.43 sec
  % of Time in Steady State   :     0.00
  Average Iterations per Step :     2.82
  % of Steps Not Converging   :     9.26
  Time Step Frequencies       :
     30.000 - 13.228 sec      :     0.00 %
     13.228 -  5.833 sec      :     2.38 %
      5.833 -  2.572 sec      :    20.37 %
      2.572 -  1.134 sec      :    17.01 %
      1.134 -  0.500 sec      :    60.24 %
  
  
  ***************************
  Subcatchment Runoff Summary
  ***************************
  
  ------------------------------------------------------------------------------------------------------------------------------
                            Total      Total      Total      Total     Imperv       Perv      Total       Total     Peak  Runoff
                           Precip      Runon       Evap      Infil     Runoff     Runoff     Runoff      Runoff   Runoff   Coeff
  Subcatchment                 mm         mm         mm         mm         mm         mm         mm    10^6 ltr      LPS
  ------------------------------------------------------------------------------------------------------------------------------
  sub60                     59.28       0.00       0.00       1.82      50.96       5.30      56.26        0.74   510.21   0.949
  sub61                     59.28       0.00       0.00       2.64      48.07       7.44      55.51        1.02   709.55   0.936
  sub62                     59.28       0.00       0.00       1.21      53.25       3.53      56.78        1.56   997.70   0.958
  sub63                     59.28       0.00       0.00       4.92      41.12      12.28      53.39        1.21   807.96   0.901
  sub64                     59.28       0.00       0.00       2.48      49.18       6.41      55.59        1.34   817.06   0.938
  sub65                     59.28       0.00       0.00       2.15      50.32       5.56      55.88        1.54   911.82   0.943
  sub66                     59.28       0.00       0.00       6.11      41.01      11.08      52.09        2.43  1224.31   0.879
  sub67                     59.28       0.00       0.00       1.16      53.29       3.58      56.88        1.06   761.37   0.959
  sub68                     59.28       0.00       0.00       2.19      49.79       6.11      55.90        1.54  1024.81   0.943
  sub69                     59.28       0.00       0.00       1.98      50.27       6.92      57.19        2.12  1210.70   0.965
  sub70                     59.28       0.00       0.00       6.60      38.96      13.55      52.51        1.52   687.14   0.886
  sub71                     59.28       0.00       0.00       1.25      53.21       3.50      56.70        1.48   880.61   0.957
  sub72                     59.28       0.00       0.00       1.11      53.72       3.04      56.76        0.78   430.02   0.958
  
  
  ******************
  Node Depth Summary
  ******************
  
  ---------------------------------------------------------------------------------
                                 Average  Maximum  Maximum  Time of Max    Reported
                                   Depth    Depth      HGL   Occurrence   Max Depth
  Node                 Type       Meters   Meters   Meters  days hr:min      Meters
  ---------------------------------------------------------------------------------
  WS02003060           JUNCTION     0.22     0.38     5.32     0  03:16        0.38
  WS02003066           JUNCTION     0.18     0.30     5.85     0  03:15        0.30
  WS02003067           JUNCTION     0.48     0.70     6.02     0  03:15        0.70
  WS02003069           JUNCTION     0.24     0.43     5.01     0  03:13        0.43
  WS02003072           JUNCTION     0.30     0.50     4.87     0  03:14        0.50
  WS02003073           JUNCTION     0.17     0.30     4.36     0  03:15        0.30
  WS02004401           JUNCTION     0.55     0.85     6.85     0  03:10        0.85
  WS02004402           JUNCTION     0.58     0.88     6.84     0  03:10        0.88
  WS02004403           JUNCTION     0.61     0.89     6.82     0  03:11        0.89
  WS02004404           JUNCTION     0.68     0.96     6.81     0  03:11        0.96
  WS02004405           JUNCTION     0.68     0.96     6.81     0  03:10        0.96
  WS02004406           JUNCTION     0.69     0.96     6.79     0  03:13        0.96
  WS02004407           JUNCTION     0.16     0.30     6.61     0  03:10        0.30
  WS02004409           JUNCTION     0.36     0.67     6.44     0  03:11        0.67
  WS02004410           JUNCTION     0.38     0.68     6.40     0  03:12        0.68
  WS02004411           JUNCTION     0.41     0.69     6.37     0  03:11        0.69
  WS02004412           JUNCTION     0.43     0.70     6.34     0  03:12        0.70
  WS02004413           JUNCTION     0.59     0.86     6.33     0  03:12        0.86
  WS02006109           JUNCTION     0.62     1.25     7.87     0  02:26        1.04
  WS02006110           JUNCTION     0.62     1.62     8.21     0  02:26        0.98
  WS02006111           JUNCTION     0.16     0.29     6.99     0  03:25        0.29
  WS02006112           JUNCTION     0.70     1.07     6.96     0  02:47        1.05
  WS02006113           JUNCTION     0.25     0.46     7.35     0  03:11        0.46
  WS02006115           JUNCTION     0.44     0.75     6.89     0  03:10        0.75
  WS02006116           JUNCTION     0.52     0.83     6.87     0  03:10        0.83
  WS02006228           JUNCTION     0.61     1.33     7.98     0  02:53        1.08
  WS02006229           JUNCTION     0.58     1.38     8.08     0  02:53        1.06
  WS02006230           JUNCTION     0.57     1.62     8.36     0  02:53        1.17
  WS02006231           JUNCTION     0.40     1.52     8.64     0  02:25        0.92
  WS02006232           JUNCTION     0.53     1.42     8.46     0  02:53        1.12
  WS02006234           JUNCTION     0.46     1.66     8.81     0  02:25        1.20
  WS02006235           JUNCTION     0.49     1.88     9.05     0  02:25        1.30
  WS02006238           JUNCTION     0.52     1.95     9.09     0  02:25        1.35
  WS02006239           JUNCTION     0.49     1.88     9.09     0  02:25        1.37
  WS02006240           JUNCTION     0.45     1.78     9.07     0  02:25        1.35
  WS02006242           JUNCTION     0.52     1.55     8.82     0  02:25        1.42
  WS02006243           JUNCTION     0.43     1.40     8.82     0  02:25        1.30
  WS02006245           JUNCTION     0.43     1.33     8.81     0  02:25        1.25
  WS02006247           JUNCTION     0.46     1.27     8.77     0  02:25        1.22
  WS02006248           JUNCTION     0.42     1.10     8.69     0  02:18        1.10
  WS02006249           JUNCTION     0.45     1.09     8.69     0  02:10        1.09
  WS02006251           JUNCTION     0.45     1.89     9.56     0  02:10        1.25
  WS02006252           JUNCTION     0.34     1.50     9.74     0  00:00        0.83
  WS02006256           JUNCTION     0.99     2.35     9.28     0  00:00        2.35
  WSF200               JUNCTION     0.15     0.29     5.52     0  03:15        0.29
  YS02001580           JUNCTION     0.06     1.05     9.59     0  02:13        0.80
  YS02001583           JUNCTION     0.09     1.03     9.53     0  02:13        0.82
  YS02001586           JUNCTION     0.15     1.13     9.30     0  02:13        1.13
  YS02001590           JUNCTION     0.24     1.40     9.26     0  02:13        1.37
  YS02001593           JUNCTION     0.17     1.33     9.19     0  02:13        1.28
  YS02001596           JUNCTION     0.24     1.69     9.11     0  02:13        1.65
  YS02001600           JUNCTION     0.29     1.87     9.00     0  02:13        1.86
  YS02001601           JUNCTION     0.47     2.06     8.90     0  02:12        2.06
  YS02001602           JUNCTION     0.39     1.87     8.77     0  02:15        1.87
  YS02001605           JUNCTION     0.37     1.78     8.68     0  02:24        1.78
  YS02001607           JUNCTION     0.37     1.65     8.50     0  02:24        1.65
  YS02001610           JUNCTION     0.41     1.68     8.48     0  02:16        1.68
  YS02001613           JUNCTION     0.37     1.69     8.53     0  02:24        1.69
  YS02001616           JUNCTION     0.30     1.61     8.52     0  02:24        1.61
  YS02001619           JUNCTION     0.28     1.61     8.54     0  02:24        1.61
  YS02001622           JUNCTION     0.27     1.57     8.47     0  02:25        1.56
  YS02001625           JUNCTION     0.53     1.78     8.38     0  02:16        1.78
  YS02001629           JUNCTION     0.38     1.85     8.40     0  02:18        1.85
  YS02001633           JUNCTION     0.46     2.08     8.53     0  02:24        2.08
  YS02001641           JUNCTION     0.45     1.95     8.39     0  02:18        1.94
  YS02001644           JUNCTION     0.45     1.92     8.35     0  02:18        1.92
  YS02001647           JUNCTION     0.25     1.76     8.37     0  02:23        1.75
  YS02001649           JUNCTION     0.28     1.99     8.38     0  02:23        1.95
  YS02001652           JUNCTION     0.18     1.85     8.45     0  02:23        1.78
  YS02001655           JUNCTION     0.14     1.92     8.77     0  02:17        1.57
  YS02001658           JUNCTION     0.10     1.59     8.74     0  02:18        1.32
  YS02001661           JUNCTION     0.14     1.28     8.68     0  02:23        1.09
  YS02001664           JUNCTION     0.05     0.52     8.45     0  02:24        0.51
  YS02001745           JUNCTION     0.06     0.82     8.33     0  02:24        0.81
  YS02001748           JUNCTION     0.10     1.35     8.42     0  02:20        1.24
  YS02001751           JUNCTION     0.12     1.68     8.56     0  02:20        1.48
  YS02001754           JUNCTION     0.16     1.90     8.51     0  02:20        1.73
  YS02001757           JUNCTION     0.31     2.05     8.31     0  02:20        2.04
  YS02001759           JUNCTION     0.25     2.06     8.42     0  02:24        2.06
  YS02001762           JUNCTION     0.24     1.98     8.38     0  02:23        1.98
  YS02001765           JUNCTION     0.22     1.94     8.39     0  02:23        1.92
  YS02001767           JUNCTION     0.22     1.92     8.41     0  02:23        1.90
  YS02001770           JUNCTION     0.23     1.95     8.44     0  02:24        1.95
  YS02001774           JUNCTION     0.30     1.99     8.41     0  02:19        1.98
  YS02001779           JUNCTION     0.15     1.68     8.37     0  02:16        1.68
  YS02001783           JUNCTION     0.20     1.24     7.39     0  02:18        1.23
  YS02001784           JUNCTION     0.21     1.13     7.20     0  02:24        1.11
  YS02001786           JUNCTION     0.18     0.88     6.91     0  02:24        0.87
  YS02001788           JUNCTION     0.13     0.62     6.60     0  02:22        0.62
  YS02001790           JUNCTION     0.15     0.73     6.37     0  02:23        0.72
  YS02001791           JUNCTION     0.10     0.44     5.91     0  02:23        0.43
  YS02001793           JUNCTION     0.05     0.30     5.14     0  02:20        0.28
  YS02001882           JUNCTION     0.25     1.73     8.44     0  02:24        1.73
  YS02001884           JUNCTION     0.34     1.77     8.39     0  02:24        1.77
  YS02001887           JUNCTION     0.42     1.90     8.44     0  02:24        1.90
  YS02001890           JUNCTION     0.45     1.81     8.32     0  02:18        1.81
  YS02001895           JUNCTION     0.22     1.57     8.31     0  02:18        1.56
  YS02001898           JUNCTION     0.23     1.57     8.31     0  02:18        1.56
  YS02001901           JUNCTION     0.34     1.68     8.29     0  02:18        1.67
  YS02001904           JUNCTION     0.32     1.64     8.27     0  02:18        1.63
  YS02001907           JUNCTION     0.64     1.96     8.25     0  02:18        1.96
  YS02001910           JUNCTION     0.44     1.98     8.49     0  02:19        1.95
  YS02001915           JUNCTION     0.25     1.93     8.65     0  02:19        1.89
  YS02001918           JUNCTION     0.13     1.81     8.88     0  02:19        1.44
  YS02001920           JUNCTION     0.21     2.05     9.06     0  02:19        1.50
  YS02001923           JUNCTION     0.09     1.91     9.17     0  02:19        1.26
  YS02001926           JUNCTION     0.13     1.80     9.24     0  02:19        1.08
  YS02001929           JUNCTION     0.07     1.78     9.47     0  02:19        0.84
  YS02006553           JUNCTION     0.65     1.98     8.27     0  02:24        1.98
  YS02006556           JUNCTION     0.62     2.02     8.33     0  02:24        2.02
  YS02006558           JUNCTION     0.66     2.10     8.36     0  02:24        2.10
  YS02006561           JUNCTION     0.12     0.92     7.58     0  02:24        0.90
  YS02163301           JUNCTION     0.40     1.94     8.46     0  02:24        1.94
  YS02163601           JUNCTION     0.50     2.06     8.46     0  02:24        2.06
  YS02164001           JUNCTION     0.44     1.99     8.44     0  02:24        1.99
  CC-1                 OUTFALL      0.00     0.00     0.00     0  00:00        0.00
  CC-2                 OUTFALL      0.00     0.00     0.00     0  00:00        0.00
  JK-1                 OUTFALL      0.00     0.00     0.00     0  00:00        0.00
  JK-2                 OUTFALL      0.00     0.00     0.00     0  00:00        0.00
  WSC                  OUTFALL      0.17     0.30     0.97     0  03:15        0.30
  CC-storage           STORAGE      0.92     1.76     7.26     0  02:45        1.76
  JK-storage           STORAGE      3.31     4.23     5.03     0  02:20        4.20
  
  
  *******************
  Node Inflow Summary
  *******************
  
  -------------------------------------------------------------------------------------------------
                                  Maximum  Maximum                  Lateral       Total        Flow
                                  Lateral    Total  Time of Max      Inflow      Inflow     Balance
                                   Inflow   Inflow   Occurrence      Volume      Volume       Error
  Node                 Type           LPS      LPS  days hr:min    10^6 ltr    10^6 ltr     Percent
  -------------------------------------------------------------------------------------------------
  WS02003060           JUNCTION     16.53   553.80     0  03:15       0.476        5.68       0.062
  WS02003066           JUNCTION      0.00   535.86     0  03:12           0        5.21       0.036
  WS02003067           JUNCTION      0.00   535.81     0  03:12           0        5.22       0.092
  WS02003069           JUNCTION      0.32   553.05     0  03:16     0.00922        5.69       0.105
  WS02003072           JUNCTION      0.00   552.71     0  03:14           0        5.68       0.178
  WS02003073           JUNCTION      1.82   554.42     0  03:14      0.0524        5.73       0.164
  WS02004401           JUNCTION      0.00   540.73     0  03:12           0        5.33       0.206
  WS02004402           JUNCTION      0.00   539.66     0  03:12           0        5.32       0.207
  WS02004403           JUNCTION      0.00   539.12     0  03:12           0        5.31       0.201
  WS02004404           JUNCTION      0.16   538.77     0  03:12     0.00467         5.3       0.172
  WS02004405           JUNCTION      0.04   538.65     0  03:12      0.0011        5.29       0.242
  WS02004406           JUNCTION      0.00   538.04     0  03:13           0        5.28       0.413
  WS02004407           JUNCTION      0.00   537.47     0  03:13           0        5.26       0.030
  WS02004409           JUNCTION      0.00   536.75     0  03:10           0        5.26       0.074
  WS02004410           JUNCTION      0.00   536.64     0  03:13           0        5.25       0.112
  WS02004411           JUNCTION      0.00   536.23     0  03:14           0        5.25       0.135
  WS02004412           JUNCTION      0.00   536.39     0  03:14           0        5.24       0.173
  WS02004413           JUNCTION      0.00   536.61     0  03:14           0        5.23       0.299
  WS02006109           JUNCTION      1.23   559.42     0  02:53      0.0354        5.38       0.095
  WS02006110           JUNCTION      0.00   560.29     0  02:53           0        5.37       0.123
  WS02006111           JUNCTION      0.00   561.77     0  02:43           0        5.36       0.015
  WS02006112           JUNCTION      0.00   544.31     0  03:25           0        5.36       0.356
  WS02006113           JUNCTION      0.00   568.52     0  02:26           0        5.36       0.037
  WS02006115           JUNCTION      0.00   557.32     0  03:00           0        5.34       0.141
  WS02006116           JUNCTION      0.00   539.79     0  03:12           0        5.33       0.108
  WS02006228           JUNCTION      0.00   557.55     0  02:53           0        5.34       0.043
  WS02006229           JUNCTION      0.00   557.20     0  02:53           0        5.35       0.143
  WS02006230           JUNCTION     10.28   590.40     0  02:35       0.296        5.35       0.087
  WS02006231           JUNCTION      0.00   577.76     0  02:46           0        5.05      -0.154
  WS02006232           JUNCTION      0.00   576.62     0  02:46           0        5.07       0.342
  WS02006234           JUNCTION      0.00   573.15     0  02:46           0        5.05      -0.261
  WS02006235           JUNCTION      0.00   566.81     0  02:46           0        5.13       0.282
  WS02006238           JUNCTION      0.00   425.51     0  02:55           0        4.09      -0.198
  WS02006239           JUNCTION      0.00   424.16     0  02:55           0        4.05      -0.177
  WS02006240           JUNCTION      0.00   419.61     0  02:55           0        4.02      -0.061
  WS02006242           JUNCTION      0.00   419.29     0  02:55           0           4       0.006
  WS02006243           JUNCTION      0.00   419.68     0  03:35           0        3.99       0.125
  WS02006245           JUNCTION      0.00   420.53     0  02:55           0        4.01       0.439
  WS02006247           JUNCTION      0.00   421.96     0  02:55           0        4.01       0.040
  WS02006248           JUNCTION      0.00   423.98     0  02:55           0        4.02       0.115
  WS02006249           JUNCTION      0.00   459.02     0  00:00           0        4.28       0.391
  WS02006251           JUNCTION      0.08   407.63     0  02:10     0.00222        4.27      -0.041
  WS02006252           JUNCTION      0.00   400.00     0  00:00           0        4.27      -0.053
  WS02006256           JUNCTION      0.00   300.00     0  00:00           0        1.54      -0.791
  WSF200               JUNCTION      0.00   536.00     0  03:15           0        5.21       0.018
  YS02001580           JUNCTION      0.00    72.96     0  02:13           0     0.00412       2.032
  YS02001583           JUNCTION      0.00   125.21     0  02:13           0      0.0152      -5.317
  YS02001586           JUNCTION    687.14   687.14     0  02:26        1.52        1.53       0.067
  YS02001590           JUNCTION      0.00   318.42     0  02:29           0        1.26      -0.023
  YS02001593           JUNCTION      0.00   318.21     0  02:29           0        1.26       0.015
  YS02001596           JUNCTION      0.00   318.22     0  02:38           0        1.26      -0.000
  YS02001600           JUNCTION      0.00   318.07     0  02:35           0        1.26       0.016
  YS02001601           JUNCTION   1210.70  1528.36     0  02:26        2.12        3.37       0.026
  YS02001602           JUNCTION      0.00   492.59     0  02:12           0        2.21       0.018
  YS02001605           JUNCTION      0.00   492.27     0  02:12           0        2.11       0.028
  YS02001607           JUNCTION      0.00   492.23     0  02:12           0        2.11       0.099
  YS02001610           JUNCTION      0.00   650.60     0  02:26           0        2.24       0.105
  YS02001613           JUNCTION      0.00   491.67     0  02:12           0        1.85       0.087
  YS02001616           JUNCTION      0.00   495.32     0  02:11           0        1.85       0.026
  YS02001619           JUNCTION   1224.31  1224.31     0  02:26        2.43        4.14       0.001
  YS02001622           JUNCTION      0.00   927.15     0  02:25           0           4       0.003
  YS02001625           JUNCTION      0.00  1296.86     0  02:25           0        4.17       0.230
  YS02001629           JUNCTION      0.00   895.53     0  02:15           0        3.27       0.011
  YS02001633           JUNCTION    912.02  1260.48     0  02:15        1.54        4.63       0.075
  YS02001641           JUNCTION      0.00  1256.39     0  02:15           0        4.45       0.064
  YS02001644           JUNCTION    817.10  1597.42     0  02:16        1.34        5.79       0.060
  YS02001647           JUNCTION      0.00  1595.91     0  02:16           0        5.44       0.009
  YS02001649           JUNCTION      0.00  1763.69     0  02:17           0        6.66       0.003
  YS02001652           JUNCTION      0.00   828.15     0  02:25           0        1.22      -0.087
  YS02001655           JUNCTION      0.15   828.39     0  02:25     0.00443        1.22       0.009
  YS02001658           JUNCTION      0.00   828.22     0  02:25           0        1.21      -0.054
  YS02001661           JUNCTION      0.00   854.49     0  02:23           0        1.21       0.002
  YS02001664           JUNCTION    807.96   807.96     0  02:25        1.21        1.21      -0.008
  YS02001745           JUNCTION    510.21   510.21     0  02:25       0.739       0.739       0.163
  YS02001748           JUNCTION      0.04   513.64     0  02:25      0.0013        0.74      -0.291
  YS02001751           JUNCTION      0.01   512.87     0  02:25    0.000317       0.747       0.113
  YS02001754           JUNCTION      0.26   512.90     0  02:25     0.00749       0.762      -0.165
  YS02001757           JUNCTION      0.00  2999.44     0  02:24           0        9.87       0.003
  YS02001759           JUNCTION    709.59  1245.42     0  02:24        1.02        2.45      -0.005
  YS02001762           JUNCTION      0.00   680.55     0  02:21           0        1.43      -0.001
  YS02001765           JUNCTION      0.00   680.20     0  02:21           0        1.43       0.006
  YS02001767           JUNCTION      0.54   680.55     0  02:21      0.0154        1.43       0.003
  YS02001770           JUNCTION    997.86   997.86     0  02:25        1.56         1.6      -0.025
  YS02001774           JUNCTION      0.00   483.92     0  02:25           0       0.206       0.546
  YS02001779           JUNCTION      0.01   484.03     0  02:25    0.000144       0.161      -0.302
  YS02001783           JUNCTION      0.00  1164.88     0  02:24           0        3.88       0.006
  YS02001784           JUNCTION      1.06  1165.91     0  02:24      0.0305        3.91       0.013
  YS02001786           JUNCTION      0.06  1166.48     0  02:24     0.00162        3.91       0.019
  YS02001788           JUNCTION      0.07  1167.16     0  02:24     0.00204        3.91       0.007
  YS02001790           JUNCTION      0.15  1176.00     0  02:23     0.00446        3.91       0.020
  YS02001791           JUNCTION      0.00  1293.82     0  02:23           0        3.91      -0.023
  YS02001793           JUNCTION      0.00  1251.39     0  02:23           0        3.91       0.005
  YS02001882           JUNCTION      0.00    31.60     0  02:16           0      0.0129       4.257
  YS02001884           JUNCTION      0.00    46.77     0  02:15           0      0.0491       5.247
  YS02001887           JUNCTION    761.82   761.85     0  02:25        1.07         1.1       0.403
  YS02001890           JUNCTION      0.00   762.02     0  02:25           0        1.06       0.481
  YS02001895           JUNCTION      0.00   517.46     0  02:27           0       0.999       0.157
  YS02001898           JUNCTION      0.00   517.13     0  02:26           0       0.997       0.019
  YS02001901           JUNCTION      0.00   517.26     0  02:25           0           1       0.330
  YS02001904           JUNCTION      0.00   516.84     0  02:26           0           1       0.280
  YS02001907           JUNCTION      0.00  1846.60     0  02:25           0        3.34       0.540
  YS02001910           JUNCTION      0.00  1330.34     0  02:25           0        2.35       0.309
  YS02001915           JUNCTION    880.63  1329.84     0  02:25        1.48        2.38       0.067
  YS02001918           JUNCTION      0.00   450.81     0  02:25           0       0.912       0.013
  YS02001920           JUNCTION      2.87   450.72     0  02:25      0.0827       0.899       0.105
  YS02001923           JUNCTION      0.04   447.84     0  02:25     0.00109       0.803       0.005
  YS02001926           JUNCTION      0.05   447.91     0  02:25      0.0015       0.788      -0.023
  YS02001929           JUNCTION    430.02   430.02     0  02:26        0.78       0.781      -0.056
  YS02006553           JUNCTION      0.00   804.22     0  02:37           0        2.36       0.505
  YS02006556           JUNCTION      0.00   805.42     0  02:37           0        2.37       0.347
  YS02006558           JUNCTION   1025.69  1164.06     0  02:24        1.56        3.91       0.089
  YS02006561           JUNCTION      0.00  1164.30     0  02:24           0        3.88      -0.001
  YS02163301           JUNCTION      0.00   895.11     0  02:15           0        3.27       0.050
  YS02163601           JUNCTION      0.11  1259.32     0  02:15     0.00317        4.45       0.107
  YS02164001           JUNCTION      0.00  1258.10     0  02:15           0        4.45       0.054
  CC-1                 OUTFALL       0.00   683.00     0  00:00           0        3.34       0.000
  CC-2                 OUTFALL       0.00   683.00     0  00:00           0        2.63       0.000
  JK-1                 OUTFALL       0.00  1000.00     0  00:00           0        2.29       0.000
  JK-2                 OUTFALL       0.00  1000.00     0  00:00           0      0.0484       0.000
  WSC                  OUTFALL       0.00   554.25     0  03:15           0        5.72       0.000
  CC-storage           STORAGE       0.00  2999.24     0  02:23           0        12.1      -0.115
  JK-storage           STORAGE       0.00  1234.31     0  02:24           0        4.06       0.141
  
  
  **********************
  Node Surcharge Summary
  **********************
  
  Surcharging occurs when water rises above the top of the highest conduit.
  ---------------------------------------------------------------------
                                               Max. Height   Min. Depth
                                   Hours       Above Crown    Below Rim
  Node                 Type      Surcharged         Meters       Meters
  ---------------------------------------------------------------------
  WS02006109           JUNCTION        1.86          0.433        1.387
  WS02006110           JUNCTION        0.79          0.713        1.137
  WS02006112           JUNCTION        0.93          0.073        1.607
  WS02006228           JUNCTION        1.85          0.500        1.700
  WS02006229           JUNCTION        1.88          0.583        1.867
  WS02006230           JUNCTION        0.80          0.538        1.032
  WS02006231           JUNCTION        0.98          0.809        0.721
  WS02006232           JUNCTION        1.93          0.719        0.761
  WS02006234           JUNCTION        1.34          0.938        0.302
  WS02006235           JUNCTION        1.83          1.173        0.117
  WS02006238           JUNCTION        1.89          1.231        0.199
  WS02006239           JUNCTION        1.82          1.145        0.145
  WS02006240           JUNCTION        1.85          1.065        0.325
  WS02006242           JUNCTION        1.87          0.820        0.000
  WS02006243           JUNCTION        1.84          0.695        0.075
  WS02006245           JUNCTION        1.84          0.617        0.233
  WS02006247           JUNCTION        1.84          0.562        0.198
  WS02006248           JUNCTION        1.84          0.380        0.000
  WS02006249           JUNCTION        1.83          0.390        0.000
  WS02006251           JUNCTION        1.08          0.858        0.322
  WS02006252           JUNCTION        2.08          1.100        0.000
  WS02006256           JUNCTION        6.38          2.050        0.000
  YS02001580           JUNCTION        0.55          0.450        0.000
  YS02001583           JUNCTION        0.55          0.391        0.109
  YS02001586           JUNCTION        0.68          0.510        0.000
  YS02001590           JUNCTION        0.76          0.750        0.000
  YS02001593           JUNCTION        0.76          0.710        0.130
  YS02001596           JUNCTION        0.88          0.956        0.114
  YS02001600           JUNCTION        1.04          1.190        0.000
  YS02001601           JUNCTION        1.38          1.440        0.000
  YS02001602           JUNCTION        1.27          1.270        0.000
  YS02001605           JUNCTION        1.22          1.180        0.000
  YS02001607           JUNCTION        0.75          0.649        0.031
  YS02001610           JUNCTION        0.78          0.680        0.000
  YS02001613           JUNCTION        0.75          0.690        0.010
  YS02001616           JUNCTION        0.70          0.609        0.001
  YS02001619           JUNCTION        0.69          0.610        0.000
  YS02001622           JUNCTION        0.69          0.568        0.052
  YS02001625           JUNCTION        0.88          0.780        0.000
  YS02001629           JUNCTION        0.64          0.470        0.000
  YS02001633           JUNCTION        0.90          1.060        0.000
  YS02001641           JUNCTION        0.85          0.954        0.146
  YS02001644           JUNCTION        0.82          0.920        0.000
  YS02001647           JUNCTION        0.61          0.762        0.138
  YS02001649           JUNCTION        0.74          0.988        0.062
  YS02001652           JUNCTION        0.56          0.825        0.305
  YS02001655           JUNCTION        0.41          0.921        0.279
  YS02001658           JUNCTION        0.23          0.594        0.706
  YS02001661           JUNCTION        0.02          0.210        1.180
  YS02001748           JUNCTION        0.17          0.268        0.922
  YS02001751           JUNCTION        0.32          0.684        0.516
  YS02001754           JUNCTION        0.48          0.854        0.296
  YS02001757           JUNCTION        0.81          1.051        0.159
  YS02001759           JUNCTION        0.72          1.058        0.152
  YS02001762           JUNCTION        0.69          0.984        0.166
  YS02001765           JUNCTION        0.65          0.945        0.155
  YS02001767           JUNCTION        0.62          0.919        0.111
  YS02001770           JUNCTION        0.59          0.920        0.000
  YS02001774           JUNCTION        0.67          0.986        0.064
  YS02001779           JUNCTION        0.47          0.680        0.000
  YS02001783           JUNCTION        0.49          0.445        1.155
  YS02001784           JUNCTION        0.46          0.331        1.159
  YS02001786           JUNCTION        0.36          0.082        1.348
  YS02001882           JUNCTION        0.44          0.726        0.104
  YS02001884           JUNCTION        0.44          0.712        0.158
  YS02001887           JUNCTION        0.48          0.847        0.103
  YS02001890           JUNCTION        0.49          0.760        0.000
  YS02001895           JUNCTION        0.42          0.567        0.183
  YS02001898           JUNCTION        0.42          0.541        0.199
  YS02001901           JUNCTION        0.47          0.683        0.187
  YS02001904           JUNCTION        0.46          0.643        0.207
  YS02001907           JUNCTION        0.74          0.950        0.000
  YS02001910           JUNCTION        0.52          0.981        0.119
  YS02001915           JUNCTION        0.43          0.934        0.066
  YS02001918           JUNCTION        0.35          0.810        0.000
  YS02001920           JUNCTION        0.36          1.048        0.092
  YS02001923           JUNCTION        0.05          0.700        0.120
  YS02001926           JUNCTION        0.11          0.799        0.101
  YS02001929           JUNCTION        0.01          0.780        0.000
  YS02006553           JUNCTION        0.75          0.983        0.207
  YS02006556           JUNCTION        0.62          0.980        0.370
  YS02006558           JUNCTION        0.60          0.998        0.402
  YS02006561           JUNCTION        0.32          0.117        1.033
  YS02163301           JUNCTION        0.89          0.938        0.092
  YS02163601           JUNCTION        0.94          1.063        0.017
  YS02164001           JUNCTION        0.85          0.985        0.115
  
  
  *********************
  Node Flooding Summary
  *********************
  
  Flooding refers to all water that overflows a node, whether it ponds or not.
  --------------------------------------------------------------------------
                                                             Total   Maximum
                                 Maximum   Time of Max       Flood    Ponded
                        Hours       Rate    Occurrence      Volume     Depth
  Node                 Flooded       LPS   days hr:min    10^6 ltr    Meters
  --------------------------------------------------------------------------
  WS02006242              0.01     25.72      0  02:25       0.000     0.000
  WS02006248              0.02     25.74      0  03:10       0.001     0.000
  WS02006249              1.03    100.69      0  02:10       0.244     0.000
  WS02006252              0.01    245.63      0  00:00       0.000     0.000
  WS02006256              1.42    293.19      0  00:00       0.480     0.000
  YS02001580              0.01     44.03      0  02:13       0.000     0.000
  YS02001586              0.42    369.90      0  02:26       0.261     0.000
  YS02001590              0.01     13.24      0  02:13       0.000     0.000
  YS02001600              0.01      3.55      0  02:13       0.000     0.000
  YS02001601              0.62   1130.56      0  02:25       1.158     0.000
  YS02001602              0.52     62.10      0  02:20       0.106     0.000
  YS02001605              0.01      0.25      0  02:24       0.000     0.000
  YS02001610              0.46    650.33      0  02:26       0.534     0.000
  YS02001619              0.01      1.52      0  02:24       0.000     0.000
  YS02001625              0.43   1296.82      0  02:25       1.074     0.000
  YS02001629              0.06     20.92      0  02:19       0.001     0.000
  YS02001633              0.01      0.33      0  02:24       0.000     0.000
  YS02001644              0.20    933.16      0  02:25       0.330     0.000
  YS02001779              0.16    483.90      0  02:25       0.143     0.000
  YS02001890              0.15    245.48      0  02:25       0.059     0.000
  YS02001907              0.30   1694.26      0  02:25       0.975     0.000
  YS02001918              0.01     71.43      0  02:19       0.000     0.000
  YS02001929              0.01    214.10      0  02:19       0.000     0.000
  
  
  **********************
  Storage Volume Summary
  **********************
  
  ------------------------------------------------------------------------------------------------
                         Average    Avg   Evap  Exfil     Maximum    Max    Time of Max    Maximum
                          Volume   Pcnt   Pcnt   Pcnt      Volume   Pcnt     Occurrence    Outflow
  Storage Unit           1000 m³   Full   Loss   Loss     1000 m³   Full    days hr:min        LPS
  ------------------------------------------------------------------------------------------------
  CC-storage               2.551   39.8    0.0    0.0       4.905   76.5       0  02:45    1783.53
  JK-storage               0.166   57.0    0.0    0.0       0.212   72.9       0  02:20    2300.00
  
  
  ***********************
  Outfall Loading Summary
  ***********************
  
  -----------------------------------------------------------
                         Flow       Avg       Max       Total
                         Freq      Flow      Flow      Volume
  Outfall Node           Pcnt       LPS       LPS    10^6 ltr
  -----------------------------------------------------------
  CC-1                  15.56    683.00    683.00       3.338
  CC-2                  12.36    683.00    683.00       2.630
  JK-1                   9.05   1000.00   1000.00       2.294
  JK-2                   0.12   1000.00   1000.00       0.048
  WSC                   99.96    224.12    554.25       5.716
  -----------------------------------------------------------
  System                27.41   3590.12   3366.23      14.027
  
  
  ********************
  Link Flow Summary
  ********************
  
  -----------------------------------------------------------------------------
                                 Maximum  Time of Max   Maximum    Max/    Max/
                                  |Flow|   Occurrence   |Veloc|    Full    Full
  Link                 Type          LPS  days hr:min     m/sec    Flow   Depth
  -----------------------------------------------------------------------------
  1                    CONDUIT    554.25     0  03:15      2.83    0.19    0.30
  WS02003060WS02003069 CONDUIT    552.73     0  03:16      1.64    0.22    0.34
  WS02003066WSF200     CONDUIT    536.00     0  03:15      2.85    0.09    0.22
  WS02003067WS02003066 CONDUIT    535.86     0  03:12      1.21    0.17    0.42
  WS02003069WS02003072 CONDUIT    552.71     0  03:14      1.37    0.27    0.39
  WS02003072WS02003073 CONDUIT    552.60     0  03:14      1.43    1.19    0.37
  WS02004401WS02004402 CONDUIT    539.66     0  03:12      1.07    0.65    0.86
  WS02004402WS02004403 CONDUIT    539.12     0  03:12      1.09    0.77    0.88
  WS02004403WS02004404 CONDUIT    538.60     0  03:12      1.06    0.39    0.93
  WS02004404WS02004405 CONDUIT    538.61     0  03:12      1.24    5.28    0.96
  WS02004405WS02004406 CONDUIT    538.04     0  03:13      1.20    1.06    0.96
  WS02004406WS02004407 CONDUIT    537.47     0  03:13      1.04    0.24    0.63
  WS02004407WS02004409 CONDUIT    536.75     0  03:10      1.48    0.19    0.48
  WS02004409WS02004410 CONDUIT    536.64     0  03:13      0.97    0.69    0.67
  WS02004410WS02004411 CONDUIT    536.23     0  03:14      0.94    0.73    0.69
  WS02004411WS02004412 CONDUIT    536.39     0  03:14      0.92    0.76    0.69
  WS02004412WS02004413 CONDUIT    536.61     0  03:14      0.82    0.36    0.78
  WS02004413WS02003067 CONDUIT    535.81     0  03:12      1.11    0.23    0.59
  WS02006109WS02006110 CONDUIT    560.29     0  02:53      1.12    1.08    1.00
  WS02006110WS02006113 CONDUIT    568.52     0  02:26      1.37    0.52    0.79
  WS02006111WS02006112 CONDUIT    544.31     0  03:25      1.85    0.26    0.67
  WS02006112WS02006115 CONDUIT    557.32     0  03:00      0.79    0.33    0.87
  WS02006113WS02006111 CONDUIT    561.77     0  02:43      2.47    0.67    0.46
  WS02006115WS02006116 CONDUIT    539.79     0  03:12      1.11    0.69    0.76
  WS02006116WS02004401 CONDUIT    540.73     0  03:12      1.07    0.75    0.84
  WS02006228WS02006109 CONDUIT    558.19     0  02:53      1.11    2.44    1.00
  WS02006229WS02006228 CONDUIT    557.55     0  02:53      1.11    1.85    1.00
  WS02006230WS02006229 CONDUIT    557.20     0  02:53      1.45   12.40    1.00
  WS02006231WS02006230 CONDUIT    580.12     0  02:35      1.59    8.80    1.00
  WS02006232WS02006231 CONDUIT    577.76     0  02:46      1.50    1.21    1.00
  WS02006234WS02006232 CONDUIT    576.62     0  02:46      1.50    1.17    1.00
  WS02006235WS02006234 CONDUIT    573.15     0  02:46      1.49    6.05    1.00
  WS02006238WS02006235 CONDUIT    428.25     0  02:15      1.50    0.96    1.00
  WS02006239WS02006238 CONDUIT    425.51     0  02:55      1.21    1.36    1.00
  WS02006240WS02006239 CONDUIT    424.16     0  02:55      1.31    1.33    1.00
  WS02006242WS02006240 CONDUIT    419.61     0  02:55      1.17    1.67    1.00
  WS02006243WS02006242 CONDUIT    419.29     0  02:55      1.41    0.90    1.00
  WS02006245WS02006243 CONDUIT    419.68     0  03:35      1.45    1.24    1.00
  WS02006247WS02006245 CONDUIT    420.53     0  02:55      1.43    3.33    1.00
  WS02006248WS02006247 CONDUIT    421.96     0  02:55      1.46    0.92    1.00
  WS02006249WS02006248 CONDUIT    423.98     0  02:55      1.40    2.32    1.00
  WS02006251WS02006249 CONDUIT    459.02     0  00:00      1.99    1.32    1.00
  WS02006252WS02006251 CONDUIT    407.55     0  02:10      3.87    1.50    1.00
  WS02006256WS02006235 CONDUIT    289.01     0  06:32      4.23    3.06    1.00
  WSF200WS02003060     CONDUIT    537.27     0  03:15      2.06    0.12    0.28
  YS02001580YS02001583 CONDUIT     72.96     0  02:13      0.53    0.28    1.00
  YS02001583YS02001586 CONDUIT    125.21     0  02:13      0.51    0.19    1.00
  YS02001586YS02001590 CONDUIT    318.42     0  02:29      1.24    0.56    1.00
  YS02001590YS02001593 CONDUIT    318.21     0  02:29      1.13    2.00    1.00
  YS02001593YS02001596 CONDUIT    318.22     0  02:38      1.72    0.50    1.00
  YS02001596YS02001600 CONDUIT    318.07     0  02:35      1.26    0.62    1.00
  YS02001600YS02001601 CONDUIT    318.05     0  02:36      1.12    0.55    1.00
  YS02001601YS02001602 CONDUIT    492.59     0  02:12      1.74    1.78    1.00
  YS02001602YS02001605 CONDUIT    492.27     0  02:12      1.74   10.42    1.00
  YS02001605YS02001607 CONDUIT    492.23     0  02:12      1.74    2.70    1.00
  YS02001607YS02001610 CONDUIT    492.26     0  02:12      0.63    0.47    1.00
  YS02001610YS02001613 CONDUIT    491.67     0  02:12      0.63    0.57    1.00
  YS02001613YS02001616 CONDUIT    495.32     0  02:11      0.64    0.42    1.00
  YS02001616YS02001619 CONDUIT    490.65     0  02:12      0.66    0.85    1.00
  YS02001619YS02001622 CONDUIT    927.15     0  02:25      1.18    1.37    1.00
  YS02001622YS02001625 CONDUIT    928.10     0  02:25      1.18    0.50    1.00
  YS02001625YS02001629 CONDUIT    895.53     0  02:15      1.14    0.43    1.00
  YS02001629YS02163301 CONDUIT    895.11     0  02:15      1.14    1.10    1.00
  YS02001633YS02163601 CONDUIT   1259.21     0  02:15      1.60    1.32    1.00
  YS02001641YS02001644 CONDUIT   1256.33     0  02:15      1.60    4.06    1.00
  YS02001644YS02001647 CONDUIT   1595.91     0  02:16      2.06    0.94    1.00
  YS02001647YS02001649 CONDUIT   1598.04     0  02:16      2.20    0.84    1.00
  YS02001649YS02001757 CONDUIT   1766.79     0  02:17      2.25    1.07    1.00
  YS02001652YS02001649 CONDUIT    828.14     0  02:25      1.05    0.41    1.00
  YS02001655YS02001652 CONDUIT    828.15     0  02:25      1.24    0.40    1.00
  YS02001658YS02001655 CONDUIT    828.24     0  02:25      1.81    0.35    1.00
  YS02001661YS02001658 CONDUIT    828.22     0  02:25      2.14    0.33    1.00
  YS02001664YS02001661 CONDUIT    854.49     0  02:23      2.04    0.27    0.76
  YS02001745YS02001748 CONDUIT    513.60     0  02:25      1.98    0.20    0.91
  YS02001748YS02001751 CONDUIT    512.86     0  02:25      1.57    0.26    1.00
  YS02001751YS02001754 CONDUIT    512.64     0  02:25      1.40    0.25    1.00
  YS02001754YS02001757 CONDUIT    513.29     0  02:25      0.65    0.21    1.00
  YS02001757CaochengTiaoxuchi CONDUIT   2999.24     0  02:23      3.82    1.30    1.00
  YS02001759YS02001757 CONDUIT   1245.40     0  02:24      1.59    0.88    1.00
  YS02001762YS02001759 CONDUIT    681.69     0  02:21      0.87    0.79    1.00
  YS02001765YS02001762 CONDUIT    680.55     0  02:21      0.87    0.64    1.00
  YS02001767YS02001765 CONDUIT    680.20     0  02:21      0.87    0.86    1.00
  YS02001770YS02001767 CONDUIT    680.01     0  02:21      0.87    2.69    1.00
  YS02001774YS02001770 CONDUIT    483.92     0  02:25      0.62    0.31    1.00
  YS02001779YS02001774 CONDUIT    484.03     0  02:25      0.62    0.24    1.00
  YS02001783YS02001784 CONDUIT   1164.85     0  02:24      2.32    1.61    1.00
  YS02001784YS02001785 CONDUIT   1166.42     0  02:24      2.32    2.71    1.00
  YS02001786YS02001788 CONDUIT   1167.09     0  02:24      2.48    2.25    0.89
  YS02001788YS02001790 CONDUIT   1175.84     0  02:23      2.71    0.87    0.84
  YS02001790YS02001791 CONDUIT   1293.82     0  02:23      3.44    1.41    0.70
  YS02001791YS02001793 CONDUIT   1251.39     0  02:23      6.46    0.54    0.45
  YS02001793JiankangQianchi CONDUIT   1234.31     0  02:24      2.38    0.10    0.65
  YS02001882YS02001884 CONDUIT     31.60     0  02:16      0.12    0.04    1.00
  YS02001884YS02001887 CONDUIT     46.77     0  02:15      0.08    0.06    1.00
  YS02001887YS02001890 CONDUIT    762.02     0  02:25      0.97    1.30    1.00
  YS02001890YS02001895 CONDUIT    517.46     0  02:27      0.66    0.24    1.00
  YS02001895YS02001898 CONDUIT    517.13     0  02:26      0.66    0.90    1.00
  YS02001898YS02001901 CONDUIT    517.26     0  02:25      0.66    0.33    1.00
  YS02001901YS02001904 CONDUIT    516.84     0  02:26      0.66    0.80    1.00
  YS02001904YS02001907 CONDUIT    517.78     0  02:26      0.66    0.18    1.00
  YS02001907YS02006553 CONDUIT    804.22     0  02:37      0.89    0.95    1.00
  YS02001910YS02001907 CONDUIT   1330.03     0  02:25      1.69    0.75    1.00
  YS02001915YS02001910 CONDUIT   1330.34     0  02:25      1.69    0.66    1.00
  YS02001918YS02001915 CONDUIT    451.93     0  02:25      0.58    0.25    1.00
  YS02001920YS02001918 CONDUIT    450.81     0  02:25      0.67    0.44    1.00
  YS02001923YS02001920 CONDUIT    447.85     0  02:25      0.69    0.20    1.00
  YS02001926YS02001923 CONDUIT    447.81     0  02:25      0.94    0.64    1.00
  YS02001929YS02001926 CONDUIT    447.86     0  02:25      1.08    0.21    1.00
  YS02006553YS02006556 CONDUIT    805.42     0  02:37      1.03    0.69    1.00
  YS02006556YS02006558 CONDUIT    805.75     0  02:37      1.03    0.64    1.00
  YS02006558YS02006561 CONDUIT   1164.30     0  02:24      4.12    2.57    1.00
  YS02006561YS02001783 CONDUIT   1164.88     0  02:24      2.32    0.60    1.00
  YS02163301YS02001633 CONDUIT    893.84     0  02:15      1.14    0.84    1.00
  YS02163601YS02164001 CONDUIT   1258.10     0  02:15      1.60    1.11    1.00
  YS02164001YS02001641 CONDUIT   1256.39     0  02:15      1.60    1.72    1.00
  CC-R1                PUMP       683.00     0  00:00              1.00
  CC-R2                PUMP       683.00     0  00:00              1.00
  CC-S1                PUMP       200.00     0  00:00              1.00
  CC-S2                PUMP       200.00     0  00:00              1.00
  JK-R1                PUMP      1000.00     0  00:00              1.00
  JK-R2                PUMP      1000.00     0  00:00              1.00
  JK-S                 PUMP       300.00     0  00:00              1.00
  
  
  ***************************
  Flow Classification Summary
  ***************************
  
  -------------------------------------------------------------------------------------
                      Adjusted    ---------- Fraction of Time in Flow Class ---------- 
                       /Actual         Up    Down  Sub   Sup   Up    Down  Norm  Inlet 
  Conduit               Length    Dry  Dry   Dry   Crit  Crit  Crit  Crit  Ltd   Ctrl  
  -------------------------------------------------------------------------------------
  1                       1.00   0.00  0.00  0.00  0.00  1.00  0.00  0.00  0.36  0.00
  WS02003060WS02003069    1.00   0.00  0.00  0.00  0.96  0.04  0.00  0.00  0.66  0.00
  WS02003066WSF200        1.00   0.07  0.00  0.00  0.00  0.93  0.00  0.00  0.80  0.00
  WS02003067WS02003066    1.00   0.06  0.01  0.00  0.93  0.00  0.00  0.00  0.00  0.00
  WS02003069WS02003072    1.00   0.00  0.00  0.00  0.99  0.01  0.00  0.00  0.74  0.00
  WS02003072WS02003073    1.00   0.00  0.00  0.00  0.00  0.00  0.00  1.00  0.00  0.00
  WS02004401WS02004402    1.00   0.02  0.00  0.00  0.98  0.00  0.00  0.00  0.00  0.00
  WS02004402WS02004403    1.00   0.02  0.00  0.00  0.97  0.00  0.00  0.00  0.00  0.00
  WS02004403WS02004404    1.00   0.00  0.03  0.00  0.97  0.00  0.00  0.00  0.00  0.00
  WS02004404WS02004405    1.00   0.00  0.00  0.00  1.00  0.00  0.00  0.00  0.01  0.00
  WS02004405WS02004406    1.00   0.00  0.00  0.00  1.00  0.00  0.00  0.00  0.00  0.00
  WS02004406WS02004407    1.00   0.00  0.04  0.00  0.96  0.00  0.00  0.00  0.00  0.00
  WS02004407WS02004409    1.00   0.04  0.00  0.00  0.95  0.01  0.00  0.00  0.95  0.00
  WS02004409WS02004410    1.00   0.04  0.00  0.00  0.96  0.00  0.00  0.00  0.00  0.00
  WS02004410WS02004411    1.00   0.04  0.00  0.00  0.96  0.00  0.00  0.00  0.00  0.00
  WS02004411WS02004412    1.00   0.04  0.00  0.00  0.96  0.00  0.00  0.00  0.00  0.00
  WS02004412WS02004413    1.00   0.04  0.00  0.00  0.95  0.00  0.00  0.00  0.00  0.00
  WS02004413WS02003067    1.00   0.04  0.01  0.00  0.00  0.00  0.94  0.00  0.00  0.00
  WS02006109WS02006110    1.00   0.00  0.01  0.00  0.98  0.00  0.01  0.00  0.00  0.00
  WS02006110WS02006113    1.00   0.01  0.01  0.00  0.98  0.00  0.00  0.00  0.00  0.00
  WS02006111WS02006112    1.00   0.02  0.00  0.00  0.98  0.00  0.00  0.00  0.98  0.00
  WS02006112WS02006115    1.00   0.02  0.00  0.00  0.97  0.00  0.00  0.00  0.00  0.00
  WS02006113WS02006111    1.00   0.02  0.00  0.00  0.00  0.98  0.00  0.00  0.18  0.00
  WS02006115WS02006116    1.00   0.02  0.00  0.00  0.97  0.00  0.00  0.01  0.00  0.00
  WS02006116WS02004401    1.00   0.02  0.00  0.00  0.98  0.00  0.00  0.00  0.00  0.00
  WS02006228WS02006109    1.00   0.00  0.00  0.00  1.00  0.00  0.00  0.00  0.01  0.00
  WS02006229WS02006228    1.00   0.00  0.00  0.00  0.99  0.00  0.00  0.01  0.00  0.00
  WS02006230WS02006229    1.00   0.00  0.00  0.00  0.99  0.00  0.00  0.01  0.00  0.00
  WS02006231WS02006230    1.00   0.00  0.00  0.00  0.25  0.00  0.74  0.00  0.00  0.00
  WS02006232WS02006231    1.00   0.00  0.00  0.00  0.98  0.00  0.02  0.00  0.00  0.00
  WS02006234WS02006232    1.00   0.00  0.00  0.00  1.00  0.00  0.00  0.00  0.04  0.00
  WS02006235WS02006234    1.00   0.00  0.00  0.00  0.91  0.00  0.09  0.00  0.00  0.00
  WS02006238WS02006235    1.00   0.00  0.00  0.00  1.00  0.00  0.00  0.00  0.00  0.00
  WS02006239WS02006238    1.00   0.00  0.00  0.00  1.00  0.00  0.00  0.00  0.20  0.00
  WS02006240WS02006239    1.00   0.00  0.00  0.00  0.70  0.00  0.00  0.30  0.04  0.00
  WS02006242WS02006240    1.00   0.00  0.00  0.00  0.98  0.00  0.01  0.00  0.00  0.00
  WS02006243WS02006242    1.00   0.00  0.00  0.00  0.98  0.00  0.00  0.02  0.46  0.00
  WS02006245WS02006243    1.00   0.00  0.00  0.00  0.85  0.00  0.00  0.14  0.01  0.00
  WS02006247WS02006245    1.00   0.00  0.00  0.00  0.98  0.00  0.00  0.02  0.00  0.00
  WS02006248WS02006247    1.00   0.00  0.00  0.00  0.98  0.00  0.00  0.02  0.38  0.00
  WS02006249WS02006248    1.00   0.00  0.00  0.00  0.54  0.00  0.46  0.00  0.00  0.00
  WS02006251WS02006249    1.00   0.00  0.00  0.00  0.99  0.01  0.00  0.00  0.48  0.00
  WS02006252WS02006251    1.00   0.00  0.52  0.00  0.13  0.00  0.35  0.00  0.00  0.00
  WS02006256WS02006235    1.00   0.00  0.00  0.00  1.00  0.00  0.00  0.00  0.00  0.00
  WSF200WS02003060        1.00   0.00  0.07  0.00  0.20  0.73  0.00  0.00  0.52  0.00
  YS02001580YS02001583    1.00   0.27  0.54  0.00  0.19  0.00  0.00  0.00  0.63  0.00
  YS02001583YS02001586    1.00   0.41  0.35  0.00  0.24  0.00  0.00  0.00  0.63  0.00
  YS02001586YS02001590    1.00   0.13  0.00  0.00  0.44  0.04  0.00  0.39  0.39  0.00
  YS02001590YS02001593    1.00   0.13  0.01  0.00  0.11  0.00  0.76  0.00  0.00  0.00
  YS02001593YS02001596    1.00   0.13  0.00  0.00  0.13  0.01  0.00  0.73  0.02  0.00
  YS02001596YS02001600    1.00   0.14  0.00  0.00  0.20  0.02  0.00  0.65  0.05  0.00
  YS02001600YS02001601    1.00   0.13  0.01  0.00  0.86  0.00  0.00  0.00  0.60  0.00
  YS02001601YS02001602    1.00   0.13  0.01  0.00  0.87  0.00  0.00  0.00  0.00  0.00
  YS02001602YS02001605    1.00   0.13  0.00  0.00  0.86  0.00  0.00  0.00  0.00  0.00
  YS02001605YS02001607    1.00   0.14  0.00  0.00  0.86  0.00  0.00  0.00  0.00  0.00
  YS02001607YS02001610    1.00   0.13  0.01  0.00  0.86  0.00  0.00  0.00  0.01  0.00
  YS02001610YS02001613    1.00   0.13  0.00  0.00  0.87  0.00  0.00  0.00  0.00  0.00
  YS02001613YS02001616    1.00   0.13  0.00  0.00  0.87  0.00  0.00  0.00  0.00  0.00
  YS02001616YS02001619    1.00   0.13  0.00  0.00  0.87  0.00  0.00  0.00  0.00  0.00
  YS02001619YS02001622    1.00   0.13  0.00  0.00  0.87  0.00  0.00  0.00  0.28  0.00
  YS02001622YS02001625    1.00   0.13  0.00  0.00  0.87  0.00  0.00  0.00  0.04  0.00
  YS02001625YS02001629    1.00   0.13  0.05  0.00  0.16  0.00  0.66  0.00  0.00  0.00
  YS02001629YS02163301    1.00   0.15  0.01  0.00  0.84  0.00  0.00  0.00  0.00  0.00
  YS02001633YS02163601    1.00   0.00  0.01  0.00  0.99  0.00  0.00  0.00  0.15  0.00
  YS02001641YS02001644    1.00   0.00  0.01  0.00  0.99  0.00  0.00  0.00  0.00  0.00
  YS02001644YS02001647    1.00   0.00  0.17  0.00  0.83  0.00  0.00  0.00  0.00  0.00
  YS02001647YS02001649    1.00   0.00  0.17  0.00  0.53  0.30  0.00  0.00  0.55  0.00
  YS02001649YS02001757    1.00   0.00  0.00  0.00  0.82  0.18  0.00  0.00  0.41  0.00
  YS02001652YS02001649    1.00   0.00  0.00  0.00  0.96  0.04  0.00  0.00  0.74  0.00
  YS02001655YS02001652    1.00   0.00  0.00  0.00  0.19  0.01  0.00  0.80  0.05  0.00
  YS02001658YS02001655    1.00   0.00  0.14  0.00  0.66  0.20  0.00  0.00  0.69  0.00
  YS02001661YS02001658    1.00   0.14  0.00  0.00  0.50  0.36  0.00  0.00  0.70  0.00
  YS02001664YS02001661    1.00   0.13  0.00  0.00  0.78  0.09  0.00  0.00  0.86  0.00
  YS02001745YS02001748    1.00   0.00  0.00  0.00  0.10  0.00  0.00  0.90  0.04  0.00
  YS02001748YS02001751    1.00   0.00  0.00  0.00  0.82  0.18  0.00  0.00  0.74  0.00
  YS02001751YS02001754    1.00   0.00  0.00  0.00  0.16  0.00  0.00  0.84  0.03  0.00
  YS02001754YS02001757    1.00   0.00  0.00  0.00  1.00  0.00  0.00  0.00  0.82  0.00
  YS02001757CaochengTiaoxuchi    1.00   0.00  0.00  0.00  1.00  0.00  0.00  0.00  0.67  0.00
  YS02001759YS02001757    1.00   0.00  0.00  0.00  1.00  0.00  0.00  0.00  0.52  0.00
  YS02001762YS02001759    1.00   0.00  0.00  0.00  1.00  0.00  0.00  0.00  0.06  0.00
  YS02001765YS02001762    1.00   0.00  0.00  0.00  1.00  0.00  0.00  0.00  0.66  0.00
  YS02001767YS02001765    1.00   0.00  0.00  0.00  1.00  0.00  0.00  0.00  0.01  0.00
  YS02001770YS02001767    1.00   0.00  0.00  0.00  1.00  0.00  0.00  0.00  0.00  0.00
  YS02001774YS02001770    1.00   0.00  0.13  0.00  0.70  0.00  0.16  0.00  0.03  0.00
  YS02001779YS02001774    1.00   0.00  0.00  0.00  1.00  0.00  0.00  0.00  0.76  0.00
  YS02001783YS02001784    1.00   0.00  0.18  0.00  0.82  0.00  0.00  0.00  0.55  0.00
  YS02001784YS02001785    1.00   0.00  0.00  0.00  1.00  0.00  0.00  0.00  0.17  0.00
  YS02001786YS02001788    1.00   0.00  0.00  0.00  0.79  0.21  0.00  0.00  0.00  0.00
  YS02001788YS02001790    1.00   0.00  0.00  0.00  0.21  0.79  0.00  0.00  0.80  0.00
  YS02001790YS02001791    1.00   0.00  0.00  0.00  0.01  0.99  0.00  0.00  0.17  0.00
  YS02001791YS02001793    1.00   0.00  0.00  0.00  0.00  1.00  0.00  0.00  0.01  0.00
  YS02001793JiankangQianchi    1.00   0.00  0.00  0.00  0.99  0.00  0.00  0.00  0.95  0.00
  YS02001882YS02001884    1.00   0.15  0.01  0.00  0.84  0.00  0.00  0.00  0.00  0.00
  YS02001884YS02001887    1.00   0.06  0.05  0.00  0.89  0.00  0.00  0.00  0.00  0.00
  YS02001887YS02001890    1.00   0.00  0.00  0.00  0.97  0.00  0.03  0.00  0.00  0.00
  YS02001890YS02001895    1.00   0.00  0.16  0.00  0.83  0.00  0.00  0.00  0.00  0.00
  YS02001895YS02001898    1.00   0.17  0.00  0.00  0.81  0.00  0.02  0.00  0.00  0.00
  YS02001898YS02001901    1.00   0.17  0.00  0.00  0.83  0.00  0.00  0.00  0.01  0.00
  YS02001901YS02001904    1.00   0.17  0.00  0.00  0.83  0.00  0.00  0.00  0.00  0.00
  YS02001904YS02001907    1.00   0.00  0.16  0.00  0.83  0.00  0.00  0.00  0.00  0.00
  YS02001907YS02006553    1.00   0.00  0.02  0.00  0.98  0.00  0.00  0.00  0.00  0.00
  YS02001910YS02001907    1.00   0.00  0.00  0.00  0.97  0.00  0.00  0.03  0.12  0.00
  YS02001915YS02001910    1.00   0.00  0.00  0.00  0.97  0.03  0.00  0.00  0.16  0.00
  YS02001918YS02001915    1.00   0.00  0.01  0.00  0.98  0.02  0.00  0.00  0.75  0.00
  YS02001920YS02001918    1.00   0.00  0.01  0.00  0.99  0.00  0.00  0.00  0.00  0.00
  YS02001923YS02001920    1.00   0.00  0.00  0.00  1.00  0.00  0.00  0.00  0.93  0.00
  YS02001926YS02001923    1.00   0.00  0.07  0.00  0.05  0.00  0.87  0.00  0.00  0.00
  YS02001929YS02001926    1.00   0.00  0.13  0.00  0.87  0.00  0.00  0.00  0.83  0.00
  YS02006553YS02006556    1.00   0.01  0.00  0.00  0.99  0.00  0.00  0.00  0.03  0.00
  YS02006556YS02006558    1.00   0.00  0.00  0.00  1.00  0.00  0.00  0.00  0.00  0.00
  YS02006558YS02006561    1.00   0.18  0.00  0.00  0.05  0.77  0.00  0.00  0.19  0.00
  YS02006561YS02001783    1.00   0.18  0.00  0.00  0.09  0.73  0.00  0.00  0.69  0.00
  YS02163301YS02001633    1.00   0.00  0.15  0.00  0.85  0.00  0.00  0.00  0.00  0.00
  YS02163601YS02164001    1.00   0.00  0.08  0.00  0.92  0.00  0.00  0.00  0.00  0.00
  YS02164001YS02001641    1.00   0.01  0.07  0.00  0.92  0.00  0.00  0.00  0.05  0.00
  
  
  *************************
  Conduit Surcharge Summary
  *************************
  
  ----------------------------------------------------------------------------
                                                           Hours        Hours 
                         --------- Hours Full --------   Above Full   Capacity
  Conduit                Both Ends  Upstream  Dnstream   Normal Flow   Limited
  ----------------------------------------------------------------------------
  WS02003072WS02003073        0.01      0.01      0.01      1.41         0.01
  WS02004404WS02004405        0.01      0.01      0.01      3.87         0.01
  WS02004405WS02004406        0.01      0.01      0.01      0.84         0.01
  WS02006109WS02006110        0.78      0.78      1.92      0.94         0.01
  WS02006110WS02006113        0.01      0.01      1.90      0.01         0.01
  WS02006111WS02006112        0.01      0.01      2.09      0.01         0.01
  WS02006112WS02006115        0.01      0.01      0.93      0.01         0.01
  WS02006228WS02006109        1.86      1.92      1.86      2.42         1.86
  WS02006229WS02006228        1.85      1.88      1.85      2.13         1.84
  WS02006230WS02006229        1.98      2.07      1.98      4.72         1.98
  WS02006231WS02006230        0.80      0.80      1.05      4.25         0.01
  WS02006232WS02006231        0.98      0.98      1.93      1.05         0.01
  WS02006234WS02006232        1.79      1.79      1.93      1.04         1.02
  WS02006235WS02006234        1.33      1.34      1.82      4.01         0.03
  WS02006238WS02006235        1.85      1.85      1.92      0.01         0.01
  WS02006239WS02006238        1.85      1.87      1.89      1.94         1.65
  WS02006240WS02006239        1.82      1.85      1.82      1.96         1.54
  WS02006242WS02006240        1.85      1.85      1.90      2.10         0.01
  WS02006243WS02006242        1.84      1.84      1.87      0.01         0.06
  WS02006245WS02006243        1.84      1.84      1.84      1.14         1.05
  WS02006247WS02006245        1.84      1.84      1.84      3.77         1.82
  WS02006248WS02006247        1.84      1.84      1.84      0.01         0.07
  WS02006249WS02006248        1.83      1.84      1.83      3.72         0.01
  WS02006251WS02006249        1.83      1.83      1.83      2.03         1.75
  WS02006252WS02006251        2.08      2.08      2.08      2.08         0.01
  WS02006256WS02006235        4.06      4.12      6.34      1.42         0.01
  YS02001580YS02001583        0.55      0.55      0.60      0.01         0.01
  YS02001583YS02001586        0.55      0.55      0.68      0.01         0.01
  YS02001586YS02001590        0.69      0.69      0.76      0.01         0.01
  YS02001590YS02001593        0.76      0.76      0.78      0.78         0.01
  YS02001593YS02001596        0.78      0.78      0.88      0.01         0.01
  YS02001596YS02001600        0.94      0.94      1.04      0.01         0.01
  YS02001600YS02001601        1.09      1.09      1.38      0.01         0.01
  YS02001601YS02001602        1.27      1.27      1.43      1.04         0.01
  YS02001602YS02001605        1.22      1.22      1.27      2.33         0.01
  YS02001605YS02001607        1.17      1.22      1.17      1.33         1.16
  YS02001607YS02001610        0.75      0.75      0.78      0.01         0.01
  YS02001610YS02001613        0.75      0.75      0.78      0.01         0.01
  YS02001613YS02001616        0.70      0.70      0.75      0.01         0.01
  YS02001616YS02001619        0.69      0.69      0.70      0.01         0.01
  YS02001619YS02001622        0.69      0.69      0.69      0.75         0.65
  YS02001622YS02001625        0.69      0.69      0.88      0.01         0.01
  YS02001625YS02001629        0.64      0.64      0.88      0.01         0.01
  YS02001629YS02163301        0.87      0.87      0.89      0.07         0.13
  YS02001633YS02163601        0.90      0.90      0.94      0.27         0.26
  YS02001641YS02001644        0.82      0.85      0.82      1.48         0.80
  YS02001644YS02001647        0.61      0.61      0.82      0.01         0.01
  YS02001647YS02001649        0.61      0.61      0.74      0.01         0.01
  YS02001649YS02001757        0.74      0.74      0.81      0.04         0.04
  YS02001652YS02001649        0.58      0.58      0.74      0.01         0.01
  YS02001655YS02001652        0.41      0.41      0.56      0.01         0.01
  YS02001658YS02001655        0.23      0.23      0.41      0.01         0.01
  YS02001661YS02001658        0.02      0.02      0.23      0.01         0.01
  YS02001664YS02001661        0.01      0.01      0.06      0.01         0.01
  YS02001745YS02001748        0.01      0.01      0.17      0.01         0.01
  YS02001748YS02001751        0.20      0.20      0.32      0.01         0.01
  YS02001751YS02001754        0.32      0.32      0.48      0.01         0.01
  YS02001754YS02001757        0.52      0.52      0.81      0.01         0.01
  YS02001757CaochengTiaoxuchi        0.81      0.81      1.84      0.30         0.30
  YS02001759YS02001757        0.72      0.72      0.81      0.01         0.01
  YS02001762YS02001759        0.69      0.69      0.72      0.01         0.02
  YS02001765YS02001762        0.65      0.65      0.69      0.01         0.01
  YS02001767YS02001765        0.62      0.62      0.65      0.01         0.02
  YS02001770YS02001767        0.61      0.61      0.62      0.41         0.39
  YS02001774YS02001770        0.59      0.59      0.67      0.01         0.01
  YS02001779YS02001774        0.47      0.47      0.67      0.01         0.01
  YS02001783YS02001784        0.46      0.49      0.46      0.66         0.46
  YS02001784YS02001785        0.36      0.46      0.36      0.90         0.36
  YS02001786YS02001788        0.01      0.36      0.01      0.77         0.01
  YS02001790YS02001791        0.01      0.01      0.01      0.45         0.01
  YS02001793JiankangQianchi        0.01      0.01      7.70      0.01         0.01
  YS02001882YS02001884        0.44      0.44      0.44      0.01         0.01
  YS02001884YS02001887        0.47      0.47      0.48      0.01         0.01
  YS02001887YS02001890        0.49      0.49      0.51      0.09         0.01
  YS02001890YS02001895        0.42      0.42      0.52      0.01         0.01
  YS02001895YS02001898        0.42      0.42      0.42      0.01         0.01
  YS02001898YS02001901        0.43      0.43      0.47      0.01         0.01
  YS02001901YS02001904        0.46      0.46      0.47      0.01         0.01
  YS02001904YS02001907        0.46      0.46      0.75      0.01         0.01
  YS02001907YS02006553        0.92      0.92      0.99      0.01         0.01
  YS02001910YS02001907        0.52      0.52      0.74      0.01         0.01
  YS02001915YS02001910        0.43      0.43      0.52      0.01         0.01
  YS02001918YS02001915        0.35      0.35      0.43      0.01         0.01
  YS02001920YS02001918        0.35      0.35      0.36      0.01         0.01
  YS02001923YS02001920        0.31      0.31      0.36      0.01         0.01
  YS02001926YS02001923        0.05      0.05      0.11      0.01         0.01
  YS02001929YS02001926        0.01      0.01      0.11      0.01         0.01
  YS02006553YS02006556        0.62      0.62      0.75      0.01         0.01
  YS02006556YS02006558        0.68      0.68      0.77      0.01         0.01
  YS02006558YS02006561        0.38      0.60      0.38      0.86         0.38
  YS02006561YS02001783        0.32      0.32      0.49      0.01         0.01
  YS02163301YS02001633        0.89      0.89      0.92      0.01         0.01
  YS02163601YS02164001        0.85      0.85      0.94      0.07         0.01
  YS02164001YS02001641        0.84      0.85      0.85      0.64         0.55
  
  
  ***************
  Pumping Summary
  ***************
  
  ---------------------------------------------------------------------------------------------------------
                                                  Min       Avg       Max     Total     Power    % Time Off
                        Percent   Number of      Flow      Flow      Flow    Volume     Usage    Pump Curve
  Pump                 Utilized   Start-Ups       LPS       LPS       LPS  10^6 ltr     Kw-hr    Low   High
  ---------------------------------------------------------------------------------------------------------
  CC-R1                   16.97           2      0.00    683.00    683.00     3.337     63.40    0.0    6.1
  CC-R2                   13.37           2      0.00    683.00    683.00     2.629     50.41    0.0    7.8
  CC-S1                   41.98           3      0.00    200.00    200.00     2.418     13.91    0.0    0.0
  CC-S2                   32.20           6      0.00    200.00    200.00     1.855     10.68    0.0    0.0
  JK-R1                    7.96          13      0.00   1000.00   1000.00     2.293     27.01    0.0    0.0
  JK-R2                    0.16           1      0.00   1000.00   1000.00     0.047      0.36    0.0    0.0
  JK-S                    17.74          22      0.00    300.00    300.00     1.533     19.90    0.0    0.0
  

  Analysis begun on:  Wed Apr 23 23:55:14 2025
  Analysis ended on:  Wed Apr 23 23:55:15 2025
  Total elapsed time: 00:00:01