
  EPA STORM WATER MANAGEMENT MODEL - VERSION 5.2 (Build 5.2.4)
  PYSWMM TOOLKIT API - VERSION v1.0 (2023-11-27)
  ------------------------------------------------------------

  WARNING 04: minimum elevation drop used for Conduit WS02004404WS02004405
  WARNING 03: negative offset ignored for Link YS02001904YS02001907
  
  ****************
  Analysis Options
  ****************
  Flow Units ............... LPS
  Process Models:
    Rainfall/Runoff ........ YES
    RDII ................... NO
    Snowmelt ............... NO
    Groundwater ............ NO
    Flow Routing ........... YES
    Ponding Allowed ........ NO
    Water Quality .......... NO
  Infiltration Method ...... HORTON
  Flow Routing Method ...... DYNWAVE
  Surcharge Method ......... EXTRAN
  Starting Date ............ 08/28/2015 08:00:00
  Ending Date .............. 08/28/2015 16:00:00
  Antecedent Dry Days ...... 8.0
  Report Time Step ......... 00:01:00
  Wet Time Step ............ 00:01:00
  Dry Time Step ............ 00:01:00
  Routing Time Step ........ 30.00 sec
  Variable Time Step ....... YES
  Maximum Trials ........... 8
  Number of Threads ........ 4
  Head Tolerance ........... 0.001500 m
  
  
  **************************        Volume         Depth
  Runoff Quantity Continuity     hectare-m            mm
  **************************     ---------       -------
  Total Precipitation ......         7.481       225.541
  Evaporation Loss .........         0.000         0.000
  Infiltration Loss ........         0.111         3.352
  Surface Runoff ...........         7.338       221.229
  Final Storage ............         0.033         1.001
  Continuity Error (%) .....        -0.018
  
  
  **************************        Volume        Volume
  Flow Routing Continuity        hectare-m      10^6 ltr
  **************************     ---------     ---------
  Dry Weather Inflow .......         0.025         0.251
  Wet Weather Inflow .......         7.337        73.367
  Groundwater Inflow .......         0.000         0.000
  RDII Inflow ..............         0.000         0.000
  External Inflow ..........         0.083         0.834
  External Outflow .........         2.753        27.528
  Flooding Loss ............         4.684        46.839
  Evaporation Loss .........         0.000         0.000
  Exfiltration Loss ........         0.000         0.000
  Initial Stored Volume ....         0.243         2.431
  Final Stored Volume ......         0.260         2.600
  Continuity Error (%) .....        -0.111
  
  
  *************************
  Highest Continuity Errors
  *************************
  Node YS02001583 (-13.94%)
  Node YS02001884 (4.78%)
  
  
  ***************************
  Time-Step Critical Elements
  ***************************
  Link WS02006252WS02006251 (45.33%)
  Link YS02001791YS02001793 (15.35%)
  Link WS02006238WS02006235 (10.91%)
  Link WS02004404WS02004405 (6.89%)
  Link WS02003066WSF200 (6.56%)
  
  
  ********************************
  Highest Flow Instability Indexes
  ********************************
  Link WS02006113WS02006111 (49)
  Link WS02006111WS02006112 (27)
  Link YS02001602YS02001605 (26)
  Link YS02001605YS02001607 (26)
  Link YS02001607YS02001610 (24)
  
  
  *********************************
  Most Frequent Nonconverging Nodes
  *********************************
  Node CC-1 (17.02%)
  Node CC-2 (17.02%)
  Node JK-1 (17.02%)
  Node JK-2 (17.02%)
  Node WSC (17.02%)
  
  
  *************************
  Routing Time Step Summary
  *************************
  Minimum Time Step           :     0.01 sec
  Average Time Step           :     1.70 sec
  Maximum Time Step           :     6.43 sec
  % of Time in Steady State   :     0.00
  Average Iterations per Step :     3.53
  % of Steps Not Converging   :    17.02
  Time Step Frequencies       :
     30.000 - 13.228 sec      :     0.00 %
     13.228 -  5.833 sec      :     1.25 %
      5.833 -  2.572 sec      :    18.50 %
      2.572 -  1.134 sec      :    28.43 %
      1.134 -  0.500 sec      :    51.81 %
  
  
  ***************************
  Subcatchment Runoff Summary
  ***************************
  
  ------------------------------------------------------------------------------------------------------------------------------
                            Total      Total      Total      Total     Imperv       Perv      Total       Total     Peak  Runoff
                           Precip      Runon       Evap      Infil     Runoff     Runoff     Runoff      Runoff   Runoff   Coeff
  Subcatchment                 mm         mm         mm         mm         mm         mm         mm    10^6 ltr      LPS
  ------------------------------------------------------------------------------------------------------------------------------
  sub60                    225.54       0.00       0.00       1.97     197.31      25.10     222.41        2.92   551.07   0.986
  sub61                    225.54       0.00       0.00       2.87     186.10      35.48     221.58        4.07   767.99   0.982
  sub62                    225.54       0.00       0.00       1.31     206.24      16.74     222.97        6.11  1148.49   0.989
  sub63                    225.54       0.00       0.00       5.35     159.19      60.06     219.25        4.98   936.98   0.972
  sub64                    225.54       0.00       0.00       2.70     190.52      31.13     221.66        5.32   999.93   0.983
  sub65                    225.54       0.00       0.00       2.34     194.98      26.99     221.97        6.11  1145.50   0.984
  sub66                    225.54       0.00       0.00       6.68     159.06      58.73     217.79       10.16  1789.19   0.966
  sub67                    225.54       0.00       0.00       1.25     206.30      16.80     223.11        4.15   782.26   0.989
  sub68                    225.54       0.00       0.00       2.38     192.81      29.20     222.01        6.11  1151.70   0.984
  sub69                    225.54       0.00       0.00       2.20     191.61      31.63     223.25        8.26  1537.48   0.990
  sub70                    225.54       0.00       0.00       7.37     148.69      69.31     218.01        6.30  1053.12   0.967
  sub71                    225.54       0.00       0.00       1.35     206.19      16.69     222.88        5.83  1092.10   0.988
  sub72                    225.54       0.00       0.00       1.21     208.36      14.58     222.94        3.07   570.26   0.988
  
  
  ******************
  Node Depth Summary
  ******************
  
  ---------------------------------------------------------------------------------
                                 Average  Maximum  Maximum  Time of Max    Reported
                                   Depth    Depth      HGL   Occurrence   Max Depth
  Node                 Type       Meters   Meters   Meters  days hr:min      Meters
  ---------------------------------------------------------------------------------
  WS02003060           JUNCTION     0.25     0.39     5.32     0  02:53        0.39
  WS02003066           JUNCTION     0.21     0.30     5.85     0  02:53        0.30
  WS02003067           JUNCTION     0.52     0.70     6.02     0  02:53        0.70
  WS02003069           JUNCTION     0.28     0.43     5.02     0  02:54        0.43
  WS02003072           JUNCTION     0.35     0.50     4.87     0  02:55        0.50
  WS02003073           JUNCTION     0.20     0.30     4.36     0  02:56        0.30
  WS02004401           JUNCTION     0.61     0.88     6.88     0  01:50        0.88
  WS02004402           JUNCTION     0.64     0.91     6.87     0  01:50        0.90
  WS02004403           JUNCTION     0.66     0.93     6.86     0  01:48        0.92
  WS02004404           JUNCTION     0.74     1.06     6.91     0  01:51        1.04
  WS02004405           JUNCTION     0.73     0.97     6.82     0  02:51        0.97
  WS02004406           JUNCTION     0.74     0.97     6.80     0  02:51        0.97
  WS02004407           JUNCTION     0.19     0.30     6.61     0  02:51        0.30
  WS02004409           JUNCTION     0.42     0.67     6.44     0  02:52        0.67
  WS02004410           JUNCTION     0.44     0.69     6.41     0  02:52        0.69
  WS02004411           JUNCTION     0.46     0.70     6.38     0  02:52        0.69
  WS02004412           JUNCTION     0.48     0.70     6.34     0  02:52        0.70
  WS02004413           JUNCTION     0.64     0.86     6.33     0  02:53        0.86
  WS02006109           JUNCTION     0.68     1.36     7.97     0  03:18        1.12
  WS02006110           JUNCTION     0.68     1.48     8.06     0  03:18        0.95
  WS02006111           JUNCTION     0.19     0.29     7.00     0  04:19        0.29
  WS02006112           JUNCTION     0.77     1.08     6.97     0  02:11        1.07
  WS02006113           JUNCTION     0.29     0.46     7.35     0  01:26        0.46
  WS02006115           JUNCTION     0.50     0.77     6.91     0  01:50        0.77
  WS02006116           JUNCTION     0.58     0.85     6.89     0  01:49        0.85
  WS02006228           JUNCTION     0.68     1.35     8.00     0  03:28        1.35
  WS02006229           JUNCTION     0.65     1.47     8.16     0  03:28        1.47
  WS02006230           JUNCTION     0.66     1.78     8.53     0  03:28        1.78
  WS02006231           JUNCTION     0.47     1.55     8.67     0  03:28        1.55
  WS02006232           JUNCTION     0.61     2.18     9.22     0  01:26        2.18
  WS02006234           JUNCTION     0.54     1.96     9.12     0  01:26        1.96
  WS02006235           JUNCTION     0.59     2.00     9.16     0  01:26        2.00
  WS02006238           JUNCTION     0.62     2.15     9.29     0  01:26        2.15
  WS02006239           JUNCTION     0.59     2.03     9.24     0  01:26        2.03
  WS02006240           JUNCTION     0.56     2.10     9.39     0  01:26        2.10
  WS02006242           JUNCTION     0.63     1.55     8.82     0  01:18        1.55
  WS02006243           JUNCTION     0.54     1.48     8.90     0  01:26        1.48
  WS02006245           JUNCTION     0.55     1.35     8.84     0  01:18        1.35
  WS02006247           JUNCTION     0.57     1.47     8.97     0  01:26        1.47
  WS02006248           JUNCTION     0.54     1.10     8.69     0  01:18        1.10
  WS02006249           JUNCTION     0.57     1.09     8.69     0  01:17        1.09
  WS02006251           JUNCTION     0.57     1.36     9.03     0  01:17        1.13
  WS02006252           JUNCTION     0.40     1.50     9.74     0  00:00        0.94
  WS02006256           JUNCTION     1.12     2.35     9.28     0  00:00        2.35
  WSF200               JUNCTION     0.18     0.29     5.53     0  02:53        0.29
  YS02001580           JUNCTION     0.20     1.05     9.59     0  01:06        1.05
  YS02001583           JUNCTION     0.24     1.14     9.64     0  01:06        0.88
  YS02001586           JUNCTION     0.33     1.13     9.30     0  01:05        1.13
  YS02001590           JUNCTION     0.44     1.40     9.26     0  01:06        1.40
  YS02001593           JUNCTION     0.38     1.36     9.22     0  01:05        1.29
  YS02001596           JUNCTION     0.49     1.74     9.16     0  01:26        1.74
  YS02001600           JUNCTION     0.55     1.87     9.00     0  01:05        1.87
  YS02001601           JUNCTION     0.73     2.06     8.90     0  01:05        2.06
  YS02001602           JUNCTION     0.63     1.87     8.77     0  01:07        1.87
  YS02001605           JUNCTION     0.60     1.78     8.68     0  01:07        1.78
  YS02001607           JUNCTION     0.59     1.68     8.53     0  01:07        1.68
  YS02001610           JUNCTION     0.64     1.68     8.48     0  01:07        1.68
  YS02001613           JUNCTION     0.60     1.70     8.54     0  01:07        1.67
  YS02001616           JUNCTION     0.53     1.61     8.52     0  01:07        1.61
  YS02001619           JUNCTION     0.51     1.61     8.54     0  01:07        1.61
  YS02001622           JUNCTION     0.50     1.62     8.52     0  01:07        1.60
  YS02001625           JUNCTION     0.76     1.78     8.38     0  01:07        1.78
  YS02001629           JUNCTION     0.64     1.85     8.40     0  01:07        1.85
  YS02001633           JUNCTION     0.73     2.06     8.51     0  02:49        2.06
  YS02001641           JUNCTION     0.73     1.99     8.43     0  01:31        1.99
  YS02001644           JUNCTION     0.73     1.92     8.35     0  01:08        1.92
  YS02001647           JUNCTION     0.54     1.80     8.41     0  01:09        1.77
  YS02001649           JUNCTION     0.62     2.05     8.44     0  01:09        2.05
  YS02001652           JUNCTION     0.52     2.01     8.61     0  02:23        2.01
  YS02001655           JUNCTION     0.44     2.10     8.95     0  01:08        1.83
  YS02001658           JUNCTION     0.35     1.92     9.06     0  01:09        1.46
  YS02001661           JUNCTION     0.32     1.83     9.23     0  01:09        1.18
  YS02001664           JUNCTION     0.12     0.74     8.66     0  01:10        0.70
  YS02001745           JUNCTION     0.21     2.35     9.87     0  01:09        0.85
  YS02001748           JUNCTION     0.34     2.27     9.35     0  01:09        1.29
  YS02001751           JUNCTION     0.41     2.20     9.08     0  01:09        1.66
  YS02001754           JUNCTION     0.49     2.20     8.81     0  01:09        1.87
  YS02001757           JUNCTION     0.67     2.21     8.47     0  01:09        2.16
  YS02001759           JUNCTION     0.61     2.21     8.57     0  02:23        2.21
  YS02001762           JUNCTION     0.60     2.15     8.55     0  01:09        2.15
  YS02001765           JUNCTION     0.58     2.10     8.55     0  01:09        2.10
  YS02001767           JUNCTION     0.57     2.03     8.52     0  01:09        2.03
  YS02001770           JUNCTION     0.58     1.95     8.44     0  01:09        1.95
  YS02001774           JUNCTION     0.64     2.05     8.47     0  01:31        2.05
  YS02001779           JUNCTION     0.48     1.68     8.37     0  01:08        1.68
  YS02001783           JUNCTION     0.36     1.37     7.51     0  01:26        1.37
  YS02001784           JUNCTION     0.36     1.14     7.21     0  02:23        1.14
  YS02001786           JUNCTION     0.29     1.05     7.08     0  01:07        0.88
  YS02001788           JUNCTION     0.20     0.62     6.60     0  01:22        0.62
  YS02001790           JUNCTION     0.23     0.73     6.37     0  01:29        0.72
  YS02001791           JUNCTION     0.14     0.44     5.91     0  01:43        0.44
  YS02001793           JUNCTION     0.08     0.30     5.13     0  01:15        0.30
  YS02001882           JUNCTION     0.49     1.83     8.55     0  01:07        1.83
  YS02001884           JUNCTION     0.58     1.93     8.55     0  01:07        1.93
  YS02001887           JUNCTION     0.66     1.97     8.51     0  01:07        1.95
  YS02001890           JUNCTION     0.69     1.81     8.32     0  01:07        1.81
  YS02001895           JUNCTION     0.46     1.75     8.50     0  01:26        1.75
  YS02001898           JUNCTION     0.46     1.77     8.51     0  01:07        1.76
  YS02001901           JUNCTION     0.58     1.87     8.48     0  01:07        1.87
  YS02001904           JUNCTION     0.55     1.77     8.40     0  02:23        1.77
  YS02001907           JUNCTION     0.87     1.96     8.25     0  01:07        1.96
  YS02001910           JUNCTION     0.69     1.98     8.49     0  01:18        1.98
  YS02001915           JUNCTION     0.52     2.00     8.72     0  01:07        1.87
  YS02001918           JUNCTION     0.37     1.81     8.88     0  01:07        1.56
  YS02001920           JUNCTION     0.45     2.14     9.15     0  01:08        1.71
  YS02001923           JUNCTION     0.32     2.03     9.29     0  01:08        1.39
  YS02001926           JUNCTION     0.30     1.90     9.35     0  01:08        1.22
  YS02001929           JUNCTION     0.21     1.78     9.47     0  01:08        0.99
  YS02006553           JUNCTION     0.88     2.03     8.31     0  02:23        2.03
  YS02006556           JUNCTION     0.85     2.07     8.38     0  02:23        2.07
  YS02006558           JUNCTION     0.89     2.10     8.37     0  02:23        2.10
  YS02006561           JUNCTION     0.25     0.93     7.59     0  02:23        0.91
  YS02163301           JUNCTION     0.67     2.03     8.55     0  01:26        2.03
  YS02163601           JUNCTION     0.77     2.08     8.48     0  01:08        2.07
  YS02164001           JUNCTION     0.71     2.10     8.56     0  01:26        2.10
  CC-1                 OUTFALL      0.00     0.00     0.00     0  00:00        0.00
  CC-2                 OUTFALL      0.00     0.00     0.00     0  00:00        0.00
  JK-1                 OUTFALL      0.00     0.00     0.00     0  00:00        0.00
  JK-2                 OUTFALL      0.00     0.00     0.00     0  00:00        0.00
  WSC                  OUTFALL      0.20     0.30     0.97     0  02:56        0.30
  CC-storage           STORAGE      1.19     2.30     7.80     0  02:29        2.30
  JK-storage           STORAGE      3.45     4.24     5.04     0  02:25        4.19
  
  
  *******************
  Node Inflow Summary
  *******************
  
  -------------------------------------------------------------------------------------------------
                                  Maximum  Maximum                  Lateral       Total        Flow
                                  Lateral    Total  Time of Max      Inflow      Inflow     Balance
                                   Inflow   Inflow   Occurrence      Volume      Volume       Error
  Node                 Type           LPS      LPS  days hr:min    10^6 ltr    10^6 ltr     Percent
  -------------------------------------------------------------------------------------------------
  WS02003060           JUNCTION     16.53   563.92     0  02:53       0.476        7.72       0.049
  WS02003066           JUNCTION      0.00   545.70     0  02:53           0        7.24       0.028
  WS02003067           JUNCTION      0.00   545.04     0  02:53           0        7.25       0.069
  WS02003069           JUNCTION      0.32   563.76     0  02:54     0.00922        7.72       0.083
  WS02003072           JUNCTION      0.00   561.43     0  02:54           0        7.72       0.134
  WS02003073           JUNCTION      1.82   561.82     0  02:55      0.0524        7.76       0.117
  WS02004401           JUNCTION      0.00   553.93     0  01:50           0        7.36       0.156
  WS02004402           JUNCTION      0.00   560.74     0  02:51           0        7.35       0.157
  WS02004403           JUNCTION      0.00   567.68     0  02:51           0        7.34       0.151
  WS02004404           JUNCTION      0.16   576.13     0  01:49     0.00467        7.33       0.070
  WS02004405           JUNCTION      0.04   619.89     0  02:50      0.0011        7.33       0.146
  WS02004406           JUNCTION      0.00   564.25     0  02:50           0        7.32       0.305
  WS02004407           JUNCTION      0.00   552.80     0  02:51           0         7.3       0.027
  WS02004409           JUNCTION      0.00   551.45     0  02:51           0        7.29       0.062
  WS02004410           JUNCTION      0.00   549.20     0  02:52           0        7.29       0.089
  WS02004411           JUNCTION      0.00   548.38     0  02:52           0        7.28       0.105
  WS02004412           JUNCTION      0.00   547.53     0  02:52           0        7.28       0.132
  WS02004413           JUNCTION      0.00   546.19     0  02:52           0        7.27       0.224
  WS02006109           JUNCTION      1.23   592.65     0  01:31      0.0354        7.41       0.140
  WS02006110           JUNCTION      0.00   596.74     0  01:31           0         7.4       0.112
  WS02006111           JUNCTION      0.00   564.77     0  04:19           0        7.39       0.013
  WS02006112           JUNCTION      0.00   545.07     0  04:19           0        7.39       0.258
  WS02006113           JUNCTION      0.00   578.22     0  01:26           0         7.4       0.034
  WS02006115           JUNCTION      0.00   557.82     0  03:35           0        7.37       0.108
  WS02006116           JUNCTION      0.00   548.36     0  01:49           0        7.37       0.044
  WS02006228           JUNCTION      0.00   582.95     0  01:31           0        7.38       0.062
  WS02006229           JUNCTION      0.00   578.30     0  01:31           0        7.39       0.091
  WS02006230           JUNCTION     10.28   609.69     0  01:18       0.296        7.39       0.025
  WS02006231           JUNCTION      0.00   592.17     0  01:18           0        7.09      -0.056
  WS02006232           JUNCTION      0.00   588.01     0  01:18           0        7.11       0.215
  WS02006234           JUNCTION      0.00   578.42     0  01:18           0         7.1      -0.176
  WS02006235           JUNCTION      0.00   562.46     0  04:17           0        7.15       0.118
  WS02006238           JUNCTION      0.00   424.50     0  03:10           0        5.48      -0.100
  WS02006239           JUNCTION      0.00   423.67     0  03:10           0        5.44      -0.147
  WS02006240           JUNCTION      0.00   420.64     0  03:10           0        5.41      -0.040
  WS02006242           JUNCTION      0.00   420.59     0  03:35           0         5.4      -0.015
  WS02006243           JUNCTION      0.00   420.47     0  03:40           0        5.39      -0.001
  WS02006245           JUNCTION      0.00   419.25     0  03:40           0         5.4       0.264
  WS02006247           JUNCTION      0.00   419.13     0  03:30           0         5.4       0.018
  WS02006248           JUNCTION      0.00   419.16     0  03:30           0         5.4       0.013
  WS02006249           JUNCTION      0.00   459.02     0  00:00           0        5.92       0.256
  WS02006251           JUNCTION      0.08   407.06     0  01:26     0.00222        5.92      -0.023
  WS02006252           JUNCTION      0.00   400.00     0  00:00           0        5.91      -0.018
  WS02006256           JUNCTION      0.00   300.00     0  00:00           0        2.56      -0.688
  WSF200               JUNCTION      0.00   546.03     0  02:53           0        7.24       0.013
  YS02001580           JUNCTION      0.00   265.09     0  01:06           0     0.00502     -12.880
  YS02001583           JUNCTION      0.00   302.01     0  01:05           0      0.0155     -12.232
  YS02001586           JUNCTION   1053.12  1053.16     0  01:32         6.3        6.31       0.033
  YS02001590           JUNCTION      0.00   322.69     0  02:23           0        2.74      -0.044
  YS02001593           JUNCTION      0.00   321.15     0  02:23           0        2.74       0.016
  YS02001596           JUNCTION      0.00   318.17     0  01:26           0        2.75      -0.016
  YS02001600           JUNCTION      0.00   318.23     0  02:02           0        2.75       0.022
  YS02001601           JUNCTION   1537.48  1855.18     0  01:30        8.26          11       0.008
  YS02001602           JUNCTION      0.00   619.88     0  01:06           0        3.66       0.015
  YS02001605           JUNCTION      0.00   619.56     0  01:06           0         3.2       0.026
  YS02001607           JUNCTION      0.00   619.20     0  01:06           0         3.2       0.041
  YS02001610           JUNCTION      0.00   956.99     0  01:31           0        6.03       0.047
  YS02001613           JUNCTION      0.00   619.59     0  01:31           0        3.71       0.033
  YS02001616           JUNCTION      0.00   632.47     0  01:07           0        3.73      -0.012
  YS02001619           JUNCTION   1789.19  1789.19     0  01:32        10.2          11       0.002
  YS02001622           JUNCTION      0.00  1054.50     0  01:26           0        8.13      -0.010
  YS02001625           JUNCTION      0.00  1505.49     0  01:36           0        10.3       0.058
  YS02001629           JUNCTION      0.00   730.98     0  01:06           0         3.9       0.066
  YS02001633           JUNCTION   1145.70  1261.69     0  01:07        6.12        7.69       0.038
  YS02001641           JUNCTION      0.00  1241.08     0  01:07           0        5.37       0.050
  YS02001644           JUNCTION    999.97  1854.35     0  01:08        5.32        10.7       0.023
  YS02001647           JUNCTION      0.00  1862.60     0  01:08           0        4.06       0.008
  YS02001649           JUNCTION      0.00  2147.78     0  01:08           0        9.03       0.000
  YS02001652           JUNCTION      0.00   938.38     0  01:31           0        4.99      -0.087
  YS02001655           JUNCTION      0.15   938.37     0  01:31     0.00443        4.99       0.076
  YS02001658           JUNCTION      0.00   938.97     0  01:31           0        4.99       0.011
  YS02001661           JUNCTION      0.00   944.47     0  01:31           0        4.98      -0.259
  YS02001664           JUNCTION    936.98   936.98     0  01:30        4.98        4.98       0.011
  YS02001745           JUNCTION    551.07   639.16     0  01:09        2.92        2.92       0.071
  YS02001748           JUNCTION      0.04   646.00     0  01:09      0.0013        2.92      -0.122
  YS02001751           JUNCTION      0.01   742.56     0  01:08    0.000317        2.93       0.077
  YS02001754           JUNCTION      0.26   710.30     0  01:08     0.00749        2.94      -0.156
  YS02001757           JUNCTION      0.00  3542.63     0  01:10           0        19.2       0.034
  YS02001759           JUNCTION    768.03  1432.50     0  01:09        4.07        7.24      -0.008
  YS02001762           JUNCTION      0.00   763.91     0  01:09           0        3.18       0.007
  YS02001765           JUNCTION      0.00   763.97     0  01:09           0        3.17      -0.011
  YS02001767           JUNCTION      0.54   765.23     0  01:09      0.0154        3.17       0.002
  YS02001770           JUNCTION   1148.64  1148.64     0  01:30        6.11        6.15      -0.016
  YS02001774           JUNCTION      0.00   711.40     0  01:31           0        3.02       0.046
  YS02001779           JUNCTION      0.01   711.48     0  01:31    0.000144        2.98      -0.032
  YS02001783           JUNCTION      0.00  1161.72     0  01:16           0        9.01       0.002
  YS02001784           JUNCTION      1.06  1162.68     0  01:11      0.0305        9.04       0.007
  YS02001786           JUNCTION      0.06  1163.29     0  01:31     0.00162        9.04       0.007
  YS02001788           JUNCTION      0.07  1165.32     0  01:31     0.00204        9.04       0.003
  YS02001790           JUNCTION      0.15  1180.13     0  01:08     0.00446        9.05       0.043
  YS02001791           JUNCTION      0.00  1294.35     0  01:14           0        9.04      -0.067
  YS02001793           JUNCTION      0.00  1256.42     0  01:17           0        9.05       0.001
  YS02001882           JUNCTION      0.00   145.55     0  01:07           0      0.0135       7.212
  YS02001884           JUNCTION      0.00   236.20     0  01:06           0      0.0499       5.017
  YS02001887           JUNCTION    782.71   810.32     0  01:31        4.16         4.2       0.101
  YS02001890           JUNCTION      0.00   786.68     0  01:31           0        4.15       0.124
  YS02001895           JUNCTION      0.00   632.06     0  01:07           0        3.46       0.109
  YS02001898           JUNCTION      0.00   631.05     0  01:07           0        3.46      -0.051
  YS02001901           JUNCTION      0.00   626.13     0  01:07           0        3.48       0.105
  YS02001904           JUNCTION      0.00   621.61     0  01:07           0         3.5       0.077
  YS02001907           JUNCTION      0.00  2183.55     0  01:30           0        12.5       0.145
  YS02001910           JUNCTION      0.00  1666.40     0  01:30           0        8.99       0.081
  YS02001915           JUNCTION   1092.12  1665.86     0  01:30        5.83        9.04       0.004
  YS02001918           JUNCTION      0.00   934.29     0  01:07           0        3.25       0.010
  YS02001920           JUNCTION      2.87   844.75     0  01:07      0.0827        3.21       0.006
  YS02001923           JUNCTION      0.04  1072.80     0  01:07     0.00109        3.11      -0.061
  YS02001926           JUNCTION      0.05  1466.54     0  01:08      0.0015        3.09      -0.061
  YS02001929           JUNCTION    570.26  1221.20     0  01:08        3.06        3.07      -0.068
  YS02006553           JUNCTION      0.00   813.06     0  03:01           0        2.98       0.410
  YS02006556           JUNCTION      0.00   814.76     0  03:01           0        3.01       0.271
  YS02006558           JUNCTION   1152.58  1183.60     0  01:31        6.13        9.08       0.036
  YS02006561           JUNCTION      0.00  1172.97     0  01:07           0        9.01      -0.001
  YS02163301           JUNCTION      0.00   701.40     0  03:09           0         3.9       0.037
  YS02163601           JUNCTION      0.11  1257.79     0  01:07     0.00317        5.35       0.095
  YS02164001           JUNCTION      0.00  1252.73     0  01:07           0        5.35       0.046
  CC-1                 OUTFALL       0.00   683.00     0  00:00           0        6.95       0.000
  CC-2                 OUTFALL       0.00   683.00     0  00:00           0        6.35       0.000
  JK-1                 OUTFALL       0.00  1000.00     0  00:00           0        6.43       0.000
  JK-2                 OUTFALL       0.00  1000.00     0  00:00           0      0.0484       0.000
  WSC                  OUTFALL       0.00   560.40     0  02:56           0        7.75       0.000
  CC-storage           STORAGE       0.00  3543.10     0  01:10           0        21.4      -0.087
  JK-storage           STORAGE       0.00  1231.86     0  01:19           0         9.2       0.019
  
  
  **********************
  Node Surcharge Summary
  **********************
  
  Surcharging occurs when water rises above the top of the highest conduit.
  ---------------------------------------------------------------------
                                               Max. Height   Min. Depth
                                   Hours       Above Crown    Below Rim
  Node                 Type      Surcharged         Meters       Meters
  ---------------------------------------------------------------------
  WS02004404           JUNCTION        0.03          0.061        2.719
  WS02006109           JUNCTION        3.24          0.535        1.285
  WS02006110           JUNCTION        1.59          0.567        1.283
  WS02006112           JUNCTION        2.06          0.083        1.597
  WS02006228           JUNCTION        3.23          0.524        1.676
  WS02006229           JUNCTION        3.24          0.666        1.784
  WS02006230           JUNCTION        1.58          0.702        0.868
  WS02006231           JUNCTION        2.00          0.837        0.693
  WS02006232           JUNCTION        3.26          1.480        0.000
  WS02006234           JUNCTION        2.45          1.240        0.000
  WS02006235           JUNCTION        3.13          1.290        0.000
  WS02006238           JUNCTION        3.22          1.430        0.000
  WS02006239           JUNCTION        3.18          1.290        0.000
  WS02006240           JUNCTION        3.24          1.390        0.000
  WS02006242           JUNCTION        3.25          0.820        0.000
  WS02006243           JUNCTION        3.23          0.770        0.000
  WS02006245           JUNCTION        3.23          0.641        0.209
  WS02006247           JUNCTION        3.23          0.760        0.000
  WS02006248           JUNCTION        3.22          0.380        0.000
  WS02006249           JUNCTION        3.22          0.390        0.000
  WS02006251           JUNCTION        2.21          0.332        0.848
  WS02006252           JUNCTION        3.38          1.100        0.000
  WS02006256           JUNCTION        7.02          2.050        0.000
  YS02001580           JUNCTION        2.05          0.450        0.000
  YS02001583           JUNCTION        2.05          0.500        0.000
  YS02001586           JUNCTION        2.14          0.510        0.000
  YS02001590           JUNCTION        2.19          0.750        0.000
  YS02001593           JUNCTION        2.19          0.742        0.098
  YS02001596           JUNCTION        2.25          1.008        0.062
  YS02001600           JUNCTION        2.34          1.190        0.000
  YS02001601           JUNCTION        2.52          1.440        0.000
  YS02001602           JUNCTION        2.48          1.270        0.000
  YS02001605           JUNCTION        2.46          1.180        0.000
  YS02001607           JUNCTION        2.21          0.680        0.000
  YS02001610           JUNCTION        2.23          0.680        0.000
  YS02001613           JUNCTION        2.21          0.700        0.000
  YS02001616           JUNCTION        2.18          0.610        0.000
  YS02001619           JUNCTION        2.17          0.610        0.000
  YS02001622           JUNCTION        2.18          0.620        0.000
  YS02001625           JUNCTION        2.32          0.780        0.000
  YS02001629           JUNCTION        2.16          0.470        0.000
  YS02001633           JUNCTION        2.37          1.041        0.019
  YS02001641           JUNCTION        2.38          0.988        0.112
  YS02001644           JUNCTION        2.37          0.920        0.000
  YS02001647           JUNCTION        2.25          0.800        0.100
  YS02001649           JUNCTION        2.38          1.050        0.000
  YS02001652           JUNCTION        2.22          0.984        0.146
  YS02001655           JUNCTION        2.09          1.103        0.097
  YS02001658           JUNCTION        1.90          0.917        0.383
  YS02001661           JUNCTION        0.90          0.761        0.629
  YS02001745           JUNCTION        0.01          1.350        0.000
  YS02001748           JUNCTION        1.86          1.190        0.000
  YS02001751           JUNCTION        2.05          1.200        0.000
  YS02001754           JUNCTION        2.18          1.150        0.000
  YS02001757           JUNCTION        2.45          1.210        0.000
  YS02001759           JUNCTION        2.38          1.210        0.000
  YS02001762           JUNCTION        2.36          1.150        0.000
  YS02001765           JUNCTION        2.32          1.100        0.000
  YS02001767           JUNCTION        2.29          1.030        0.000
  YS02001770           JUNCTION        2.27          0.920        0.000
  YS02001774           JUNCTION        2.34          1.050        0.000
  YS02001779           JUNCTION        2.16          0.680        0.000
  YS02001783           JUNCTION        1.99          0.570        1.030
  YS02001784           JUNCTION        1.97          0.343        1.147
  YS02001786           JUNCTION        1.92          0.247        1.183
  YS02001882           JUNCTION        1.96          0.830        0.000
  YS02001884           JUNCTION        1.97          0.870        0.000
  YS02001887           JUNCTION        1.99          0.917        0.033
  YS02001890           JUNCTION        1.99          0.760        0.000
  YS02001895           JUNCTION        1.95          0.750        0.000
  YS02001898           JUNCTION        1.95          0.740        0.000
  YS02001901           JUNCTION        1.98          0.870        0.000
  YS02001904           JUNCTION        1.97          0.767        0.083
  YS02001907           JUNCTION        2.07          0.950        0.000
  YS02001910           JUNCTION        2.00          0.980        0.120
  YS02001915           JUNCTION        1.96          1.000        0.000
  YS02001918           JUNCTION        1.91          0.810        0.000
  YS02001920           JUNCTION        1.92          1.140        0.000
  YS02001923           JUNCTION        1.03          0.820        0.000
  YS02001926           JUNCTION        1.14          0.900        0.000
  YS02001929           JUNCTION        0.01          0.780        0.000
  YS02006553           JUNCTION        2.08          1.028        0.162
  YS02006556           JUNCTION        2.04          1.025        0.325
  YS02006558           JUNCTION        2.03          1.004        0.396
  YS02006561           JUNCTION        1.89          0.128        1.022
  YS02163301           JUNCTION        2.35          1.030        0.000
  YS02163601           JUNCTION        2.41          1.080        0.000
  YS02164001           JUNCTION        2.37          1.100        0.000
  
  
  *********************
  Node Flooding Summary
  *********************
  
  Flooding refers to all water that overflows a node, whether it ponds or not.
  --------------------------------------------------------------------------
                                                             Total   Maximum
                                 Maximum   Time of Max       Flood    Ponded
                        Hours       Rate    Occurrence      Volume     Depth
  Node                 Flooded       LPS   days hr:min    10^6 ltr    Meters
  --------------------------------------------------------------------------
  WS02006232              0.01      5.97      0  01:31       0.000     0.000
  WS02006234              0.01      5.58      0  01:31       0.000     0.000
  WS02006235              0.01      3.34      0  01:31       0.000     0.000
  WS02006238              0.01      2.18      0  01:26       0.000     0.000
  WS02006239              0.01      0.83      0  01:26       0.000     0.000
  WS02006240              0.01      0.96      0  01:26       0.000     0.000
  WS02006242              0.01      9.19      0  01:26       0.000     0.000
  WS02006243              0.01      0.48      0  01:26       0.000     0.000
  WS02006247              0.01      0.89      0  01:26       0.000     0.000
  WS02006248              0.06     34.58      0  01:31       0.003     0.000
  WS02006249              2.14     92.30      0  03:28       0.500     0.000
  WS02006252              0.01    245.63      0  00:00       0.000     0.000
  WS02006256              2.37    293.19      0  00:00       0.872     0.000
  YS02001580              0.01    260.71      0  01:06       0.002     0.000
  YS02001583              0.01    201.96      0  01:06       0.001     0.000
  YS02001586              1.99    736.40      0  01:31       3.557     0.000
  YS02001590              0.01      1.42      0  01:06       0.000     0.000
  YS02001600              0.01     15.43      0  01:05       0.000     0.000
  YS02001601              2.09   1457.35      0  01:30       7.343     0.000
  YS02001602              2.06     62.21      0  01:58       0.453     0.000
  YS02001605              0.01      8.81      0  01:07       0.000     0.000
  YS02001607              0.01    429.17      0  01:07       0.004     0.000
  YS02001610              2.01    956.75      0  01:31       5.163     0.000
  YS02001613              0.01     68.06      0  01:07       0.000     0.000
  YS02001616              0.12    430.70      0  01:07       0.002     0.000
  YS02001619              0.26    118.40      0  01:31       0.058     0.000
  YS02001622              0.01    243.01      0  01:07       0.001     0.000
  YS02001625              2.03   1505.27      0  01:36       8.738     0.000
  YS02001629              0.61    225.55      0  01:10       0.149     0.000
  YS02001644              1.87   1473.61      0  01:31       6.643     0.000
  YS02001649              0.01     69.32      0  01:09       0.000     0.000
  YS02001745              0.01    113.81      0  01:09       0.000     0.000
  YS02001748              0.01     48.66      0  01:09       0.000     0.000
  YS02001751              0.01     11.10      0  01:09       0.000     0.000
  YS02001754              0.01     20.11      0  01:09       0.000     0.000
  YS02001757              0.01     19.72      0  01:09       0.000     0.000
  YS02001759              0.01      0.62      0  02:23       0.000     0.000
  YS02001762              0.01     13.53      0  01:09       0.000     0.000
  YS02001765              0.01     14.37      0  01:09       0.000     0.000
  YS02001767              0.01      7.77      0  01:09       0.000     0.000
  YS02001770              0.01     32.98      0  01:09       0.000     0.000
  YS02001774              0.01      0.90      0  01:31       0.000     0.000
  YS02001779              1.83    711.35      0  01:31       2.961     0.000
  YS02001882              0.01     38.00      0  01:07       0.000     0.000
  YS02001884              0.01     39.17      0  01:07       0.000     0.000
  YS02001890              1.31    379.84      0  01:07       0.683     0.000
  YS02001895              0.01      0.88      0  01:26       0.000     0.000
  YS02001898              0.01     92.53      0  01:07       0.000     0.000
  YS02001901              0.01     15.36      0  01:07       0.000     0.000
  YS02001907              1.88   2177.37      0  01:30       9.500     0.000
  YS02001915              0.01    274.69      0  01:07       0.001     0.000
  YS02001918              0.01    192.04      0  01:08       0.003     0.000
  YS02001920              0.01     28.60      0  01:08       0.000     0.000
  YS02001923              0.01     64.68      0  01:08       0.000     0.000
  YS02001926              0.01     50.22      0  01:08       0.000     0.000
  YS02001929              0.01   1004.34      0  01:08       0.008     0.000
  YS02163301              0.01      1.02      0  01:26       0.000     0.000
  YS02163601              0.01      9.61      0  01:08       0.000     0.000
  YS02164001              0.01      0.94      0  01:26       0.000     0.000
  CC-storage              0.52    137.44      0  02:29       0.191     0.000
  
  
  **********************
  Storage Volume Summary
  **********************
  
  ------------------------------------------------------------------------------------------------
                         Average    Avg   Evap  Exfil     Maximum    Max    Time of Max    Maximum
                          Volume   Pcnt   Pcnt   Pcnt      Volume   Pcnt     Occurrence    Outflow
  Storage Unit           1000 m³   Full   Loss   Loss     1000 m³   Full    days hr:min        LPS
  ------------------------------------------------------------------------------------------------
  CC-storage               3.325   51.9    0.0    0.0       6.410  100.0       0  02:29    1783.53
  JK-storage               0.173   59.5    0.0    0.0       0.213   73.1       0  02:25    2300.00
  
  
  ***********************
  Outfall Loading Summary
  ***********************
  
  -----------------------------------------------------------
                         Flow       Avg       Max       Total
                         Freq      Flow      Flow      Volume
  Outfall Node           Pcnt       LPS       LPS    10^6 ltr
  -----------------------------------------------------------
  CC-1                  32.49    683.00    683.00       6.946
  CC-2                  29.96    683.00    683.00       6.354
  JK-1                  21.41   1000.00   1000.00       6.430
  JK-2                   0.12   1000.00   1000.00       0.048
  WSC                   99.96    291.18    560.40       7.750
  -----------------------------------------------------------
  System                36.79   3657.18   3366.23      27.528
  
  
  ********************
  Link Flow Summary
  ********************
  
  -----------------------------------------------------------------------------
                                 Maximum  Time of Max   Maximum    Max/    Max/
                                  |Flow|   Occurrence   |Veloc|    Full    Full
  Link                 Type          LPS  days hr:min     m/sec    Flow   Depth
  -----------------------------------------------------------------------------
  1                    CONDUIT    560.40     0  02:56      2.83    0.20    0.30
  WS02003060WS02003069 CONDUIT    563.44     0  02:54      1.65    0.22    0.34
  WS02003066WSF200     CONDUIT    546.03     0  02:53      2.86    0.09    0.23
  WS02003067WS02003066 CONDUIT    545.70     0  02:53      1.22    0.17    0.42
  WS02003069WS02003072 CONDUIT    561.43     0  02:54      1.38    0.27    0.39
  WS02003072WS02003073 CONDUIT    560.00     0  02:55      1.44    1.21    0.38
  WS02004401WS02004402 CONDUIT    560.74     0  02:51      0.94    0.67    0.89
  WS02004402WS02004403 CONDUIT    567.68     0  02:51      0.94    0.82    0.91
  WS02004403WS02004404 CONDUIT    575.97     0  01:49      0.92    0.42    0.96
  WS02004404WS02004405 CONDUIT    619.85     0  02:50      1.03    6.07    0.98
  WS02004405WS02004406 CONDUIT    564.25     0  02:50      0.97    1.11    0.97
  WS02004406WS02004407 CONDUIT    552.80     0  02:51      1.06    0.25    0.63
  WS02004407WS02004409 CONDUIT    551.45     0  02:51      1.60    0.20    0.49
  WS02004409WS02004410 CONDUIT    549.20     0  02:52      1.05    0.71    0.68
  WS02004410WS02004411 CONDUIT    548.38     0  02:52      0.99    0.75    0.69
  WS02004411WS02004412 CONDUIT    547.53     0  02:52      0.98    0.78    0.70
  WS02004412WS02004413 CONDUIT    546.19     0  02:52      0.83    0.37    0.78
  WS02004413WS02003067 CONDUIT    545.04     0  02:53      1.12    0.23    0.59
  WS02006109WS02006110 CONDUIT    596.74     0  01:31      1.19    1.15    1.00
  WS02006110WS02006113 CONDUIT    578.22     0  01:26      1.39    0.53    0.79
  WS02006111WS02006112 CONDUIT    545.07     0  04:19      1.83    0.26    0.67
  WS02006112WS02006115 CONDUIT    557.82     0  03:35      0.88    0.33    0.88
  WS02006113WS02006111 CONDUIT    564.77     0  04:19      2.49    0.68    0.46
  WS02006115WS02006116 CONDUIT    548.36     0  01:49      1.15    0.70    0.78
  WS02006116WS02004401 CONDUIT    553.93     0  01:50      0.99    0.76    0.86
  WS02006228WS02006109 CONDUIT    591.42     0  01:31      1.18    2.58    1.00
  WS02006229WS02006228 CONDUIT    582.95     0  01:31      1.16    1.93    1.00
  WS02006230WS02006229 CONDUIT    578.30     0  01:31      1.50   12.87    1.00
  WS02006231WS02006230 CONDUIT    599.41     0  01:18      1.58    9.09    1.00
  WS02006232WS02006231 CONDUIT    592.17     0  01:18      1.54    1.24    1.00
  WS02006234WS02006232 CONDUIT    588.01     0  01:18      1.53    1.19    1.00
  WS02006235WS02006234 CONDUIT    578.42     0  01:18      1.50    6.10    1.00
  WS02006238WS02006235 CONDUIT    430.38     0  01:40      1.53    0.96    1.00
  WS02006239WS02006238 CONDUIT    424.50     0  03:10      1.10    1.36    1.00
  WS02006240WS02006239 CONDUIT    423.67     0  03:10      1.24    1.33    1.00
  WS02006242WS02006240 CONDUIT    420.64     0  03:10      1.13    1.67    1.00
  WS02006243WS02006242 CONDUIT    420.59     0  03:35      1.40    0.90    1.00
  WS02006245WS02006243 CONDUIT    420.47     0  03:40      1.45    1.24    1.00
  WS02006247WS02006245 CONDUIT    419.25     0  03:40      1.43    3.32    1.00
  WS02006248WS02006247 CONDUIT    419.13     0  03:30      1.44    0.91    1.00
  WS02006249WS02006248 CONDUIT    419.16     0  03:30      1.36    2.30    1.00
  WS02006251WS02006249 CONDUIT    459.02     0  00:00      1.99    1.32    1.00
  WS02006252WS02006251 CONDUIT    406.99     0  01:26     24.61    1.49    1.00
  WS02006256WS02006235 CONDUIT    289.15     0  01:10      4.23    3.06    1.00
  WSF200WS02003060     CONDUIT    547.39     0  02:53      2.07    0.12    0.28
  YS02001580YS02001583 CONDUIT    265.09     0  01:06      1.15    1.03    1.00
  YS02001583YS02001586 CONDUIT    302.01     0  01:05      1.31    0.46    1.00
  YS02001586YS02001590 CONDUIT    322.69     0  02:23      1.43    0.57    1.00
  YS02001590YS02001593 CONDUIT    321.15     0  02:23      1.14    2.02    1.00
  YS02001593YS02001596 CONDUIT    318.17     0  01:26      1.67    0.50    1.00
  YS02001596YS02001600 CONDUIT    318.23     0  02:02      1.25    0.62    1.00
  YS02001600YS02001601 CONDUIT    318.60     0  02:23      1.13    0.55    1.00
  YS02001601YS02001602 CONDUIT    619.88     0  01:06      2.19    2.24    1.00
  YS02001602YS02001605 CONDUIT    619.56     0  01:06      2.19   13.11    1.00
  YS02001605YS02001607 CONDUIT    619.20     0  01:06      2.19    3.40    1.00
  YS02001607YS02001610 CONDUIT    679.68     0  01:06      1.05    0.65    1.00
  YS02001610YS02001613 CONDUIT    619.43     0  01:31      0.88    0.71    1.00
  YS02001613YS02001616 CONDUIT    619.59     0  01:31      0.90    0.53    1.00
  YS02001616YS02001619 CONDUIT    628.75     0  01:31      0.94    1.09    1.00
  YS02001619YS02001622 CONDUIT   1054.50     0  01:26      2.18    1.55    1.00
  YS02001622YS02001625 CONDUIT   1053.71     0  01:36      1.34    0.56    1.00
  YS02001625YS02001629 CONDUIT    730.98     0  01:06      1.10    0.35    1.00
  YS02001629YS02163301 CONDUIT    701.40     0  03:09      0.89    0.86    1.00
  YS02001633YS02163601 CONDUIT   1257.68     0  01:07      1.60    1.32    1.00
  YS02001641YS02001644 CONDUIT   1239.28     0  01:07      1.58    4.01    1.00
  YS02001644YS02001647 CONDUIT   1862.60     0  01:08      2.37    1.09    1.00
  YS02001647YS02001649 CONDUIT   1875.93     0  01:08      2.39    0.99    1.00
  YS02001649YS02001757 CONDUIT   2150.75     0  01:08      2.74    1.31    1.00
  YS02001652YS02001649 CONDUIT    938.45     0  01:30      1.68    0.47    1.00
  YS02001655YS02001652 CONDUIT    938.38     0  01:31      2.14    0.46    1.00
  YS02001658YS02001655 CONDUIT    938.22     0  01:31      2.30    0.40    1.00
  YS02001661YS02001658 CONDUIT    938.97     0  01:31      2.59    0.37    1.00
  YS02001664YS02001661 CONDUIT    944.47     0  01:31      2.55    0.30    0.87
  YS02001745YS02001748 CONDUIT    645.95     0  01:09      2.48    0.25    1.00
  YS02001748YS02001751 CONDUIT    647.64     0  01:09      2.01    0.33    1.00
  YS02001751YS02001754 CONDUIT    647.58     0  01:09      1.98    0.31    1.00
  YS02001754YS02001757 CONDUIT    647.80     0  01:09      1.36    0.26    1.00
  YS02001757CaochengTiaoxuchi CONDUIT   3543.10     0  01:10      4.70    1.53    1.00
  YS02001759YS02001757 CONDUIT   1430.22     0  01:09      1.82    1.02    1.00
  YS02001762YS02001759 CONDUIT    766.18     0  01:09      0.98    0.88    1.00
  YS02001765YS02001762 CONDUIT    763.91     0  01:09      0.97    0.72    1.00
  YS02001767YS02001765 CONDUIT    763.97     0  01:09      0.99    0.96    1.00
  YS02001770YS02001767 CONDUIT    764.69     0  01:09      1.11    3.03    1.00
  YS02001774YS02001770 CONDUIT    711.40     0  01:31      0.95    0.45    1.00
  YS02001779YS02001774 CONDUIT    711.47     0  01:31      0.91    0.36    1.00
  YS02001783YS02001784 CONDUIT   1161.62     0  01:11      2.31    1.60    1.00
  YS02001784YS02001785 CONDUIT   1163.24     0  01:31      2.31    2.71    1.00
  YS02001786YS02001788 CONDUIT   1165.25     0  01:31      2.49    2.25    0.89
  YS02001788YS02001790 CONDUIT   1179.98     0  01:08      2.76    0.87    0.84
  YS02001790YS02001791 CONDUIT   1294.35     0  01:14      3.44    1.41    0.70
  YS02001791YS02001793 CONDUIT   1256.42     0  01:17      6.66    0.54    0.45
  YS02001793JiankangQianchi CONDUIT   1231.86     0  01:19      2.43    0.10    0.65
  YS02001882YS02001884 CONDUIT    145.55     0  01:07      0.57    0.17    1.00
  YS02001884YS02001887 CONDUIT    236.20     0  01:06      0.55    0.31    1.00
  YS02001887YS02001890 CONDUIT    786.68     0  01:31      1.00    1.35    1.00
  YS02001890YS02001895 CONDUIT    632.06     0  01:07      0.80    0.29    1.00
  YS02001895YS02001898 CONDUIT    631.05     0  01:07      0.90    1.10    1.00
  YS02001898YS02001901 CONDUIT    626.13     0  01:07      0.80    0.40    1.00
  YS02001901YS02001904 CONDUIT    621.61     0  01:07      0.90    0.96    1.00
  YS02001904YS02001907 CONDUIT    620.61     0  01:07      0.79    0.22    1.00
  YS02001907YS02006553 CONDUIT    813.06     0  03:01      0.90    0.96    1.00
  YS02001910YS02001907 CONDUIT   1665.97     0  01:30      2.12    0.94    1.00
  YS02001915YS02001910 CONDUIT   1666.40     0  01:30      2.12    0.83    1.00
  YS02001918YS02001915 CONDUIT    934.29     0  01:07      1.19    0.52    1.00
  YS02001920YS02001918 CONDUIT    841.88     0  01:07      1.07    0.81    1.00
  YS02001923YS02001920 CONDUIT    855.23     0  01:07      1.11    0.38    1.00
  YS02001926YS02001923 CONDUIT   1195.01     0  01:08      1.64    1.71    1.00
  YS02001929YS02001926 CONDUIT    922.86     0  01:08      1.26    0.44    1.00
  YS02006553YS02006556 CONDUIT    814.76     0  03:01      1.04    0.70    1.00
  YS02006556YS02006558 CONDUIT    816.60     0  03:01      1.04    0.64    1.00
  YS02006558YS02006561 CONDUIT   1172.97     0  01:07      4.15    2.59    1.00
  YS02006561YS02001783 CONDUIT   1161.72     0  01:16      2.31    0.60    1.00
  YS02163301YS02001633 CONDUIT    702.20     0  03:09      0.89    0.66    1.00
  YS02163601YS02164001 CONDUIT   1252.73     0  01:07      1.60    1.11    1.00
  YS02164001YS02001641 CONDUIT   1241.08     0  01:07      1.58    1.69    1.00
  CC-R1                PUMP       683.00     0  00:00              1.00
  CC-R2                PUMP       683.00     0  00:00              1.00
  CC-S1                PUMP       200.00     0  00:00              1.00
  CC-S2                PUMP       200.00     0  00:00              1.00
  JK-R1                PUMP      1000.00     0  00:00              1.00
  JK-R2                PUMP      1000.00     0  00:00              1.00
  JK-S                 PUMP       300.00     0  00:00              1.00
  
  
  ***************************
  Flow Classification Summary
  ***************************
  
  -------------------------------------------------------------------------------------
                      Adjusted    ---------- Fraction of Time in Flow Class ---------- 
                       /Actual         Up    Down  Sub   Sup   Up    Down  Norm  Inlet 
  Conduit               Length    Dry  Dry   Dry   Crit  Crit  Crit  Crit  Ltd   Ctrl  
  -------------------------------------------------------------------------------------
  1                       1.00   0.00  0.00  0.00  0.00  1.00  0.00  0.00  0.36  0.00
  WS02003060WS02003069    1.00   0.00  0.00  0.00  0.97  0.03  0.00  0.00  0.54  0.00
  WS02003066WSF200        1.00   0.08  0.00  0.00  0.00  0.92  0.00  0.00  0.70  0.00
  WS02003067WS02003066    1.00   0.07  0.01  0.00  0.93  0.00  0.00  0.00  0.00  0.00
  WS02003069WS02003072    1.00   0.00  0.00  0.00  0.99  0.01  0.00  0.00  0.58  0.00
  WS02003072WS02003073    1.00   0.00  0.00  0.00  0.00  0.00  0.00  1.00  0.00  0.00
  WS02004401WS02004402    1.00   0.02  0.00  0.00  0.98  0.00  0.00  0.00  0.00  0.00
  WS02004402WS02004403    1.00   0.02  0.00  0.00  0.97  0.00  0.00  0.00  0.00  0.00
  WS02004403WS02004404    1.00   0.00  0.03  0.00  0.97  0.00  0.00  0.00  0.00  0.00
  WS02004404WS02004405    1.00   0.00  0.00  0.00  1.00  0.00  0.00  0.00  0.00  0.00
  WS02004405WS02004406    1.00   0.00  0.00  0.00  1.00  0.00  0.00  0.00  0.00  0.00
  WS02004406WS02004407    1.00   0.00  0.04  0.00  0.95  0.00  0.00  0.00  0.00  0.00
  WS02004407WS02004409    1.00   0.05  0.00  0.00  0.94  0.01  0.00  0.00  0.94  0.00
  WS02004409WS02004410    1.00   0.05  0.00  0.00  0.95  0.00  0.00  0.00  0.00  0.00
  WS02004410WS02004411    1.00   0.05  0.00  0.00  0.95  0.00  0.00  0.00  0.00  0.00
  WS02004411WS02004412    1.00   0.05  0.00  0.00  0.95  0.00  0.00  0.00  0.00  0.00
  WS02004412WS02004413    1.00   0.05  0.00  0.00  0.95  0.00  0.00  0.00  0.00  0.00
  WS02004413WS02003067    1.00   0.05  0.01  0.00  0.00  0.00  0.93  0.00  0.00  0.00
  WS02006109WS02006110    1.00   0.00  0.01  0.00  0.98  0.00  0.01  0.00  0.00  0.00
  WS02006110WS02006113    1.00   0.01  0.01  0.00  0.98  0.00  0.00  0.00  0.00  0.00
  WS02006111WS02006112    1.00   0.02  0.00  0.00  0.98  0.00  0.00  0.00  0.98  0.00
  WS02006112WS02006115    1.00   0.02  0.00  0.00  0.97  0.00  0.00  0.00  0.00  0.00
  WS02006113WS02006111    1.00   0.02  0.00  0.00  0.00  0.98  0.00  0.00  0.18  0.00
  WS02006115WS02006116    1.00   0.02  0.00  0.00  0.97  0.00  0.00  0.01  0.00  0.00
  WS02006116WS02004401    1.00   0.02  0.00  0.00  0.98  0.00  0.00  0.00  0.00  0.00
  WS02006228WS02006109    1.00   0.00  0.00  0.00  1.00  0.00  0.00  0.00  0.00  0.00
  WS02006229WS02006228    1.00   0.00  0.00  0.00  0.99  0.00  0.00  0.01  0.00  0.00
  WS02006230WS02006229    1.00   0.00  0.00  0.00  0.99  0.00  0.00  0.01  0.00  0.00
  WS02006231WS02006230    1.00   0.00  0.00  0.00  0.42  0.00  0.58  0.00  0.00  0.00
  WS02006232WS02006231    1.00   0.00  0.00  0.00  0.98  0.00  0.01  0.00  0.00  0.00
  WS02006234WS02006232    1.00   0.00  0.00  0.00  1.00  0.00  0.00  0.00  0.01  0.00
  WS02006235WS02006234    1.00   0.00  0.00  0.00  0.95  0.00  0.05  0.00  0.00  0.00
  WS02006238WS02006235    1.00   0.00  0.00  0.00  1.00  0.00  0.00  0.00  0.00  0.00
  WS02006239WS02006238    1.00   0.00  0.00  0.00  1.00  0.00  0.00  0.00  0.12  0.00
  WS02006240WS02006239    1.00   0.00  0.00  0.00  0.80  0.00  0.00  0.20  0.03  0.00
  WS02006242WS02006240    1.00   0.00  0.00  0.00  0.99  0.00  0.01  0.00  0.00  0.00
  WS02006243WS02006242    1.00   0.00  0.00  0.00  0.99  0.00  0.00  0.01  0.33  0.00
  WS02006245WS02006243    1.00   0.00  0.00  0.00  0.89  0.00  0.00  0.11  0.02  0.00
  WS02006247WS02006245    1.00   0.00  0.00  0.00  0.98  0.00  0.00  0.02  0.00  0.00
  WS02006248WS02006247    1.00   0.00  0.00  0.00  0.99  0.00  0.00  0.01  0.29  0.00
  WS02006249WS02006248    1.00   0.00  0.00  0.00  0.66  0.00  0.34  0.00  0.00  0.00
  WS02006251WS02006249    1.00   0.00  0.00  0.00  1.00  0.00  0.00  0.00  0.36  0.00
  WS02006252WS02006251    1.00   0.00  0.39  0.00  0.28  0.00  0.33  0.00  0.00  0.00
  WS02006256WS02006235    1.00   0.00  0.00  0.00  1.00  0.00  0.00  0.00  0.00  0.00
  WSF200WS02003060        1.00   0.00  0.08  0.00  0.13  0.79  0.00  0.00  0.39  0.00
  YS02001580YS02001583    1.00   0.14  0.50  0.00  0.37  0.00  0.00  0.00  0.59  0.00
  YS02001583YS02001586    1.00   0.37  0.21  0.00  0.42  0.00  0.00  0.00  0.59  0.00
  YS02001586YS02001590    1.00   0.13  0.00  0.00  0.52  0.03  0.00  0.32  0.27  0.00
  YS02001590YS02001593    1.00   0.13  0.00  0.00  0.28  0.00  0.59  0.00  0.00  0.00
  YS02001593YS02001596    1.00   0.13  0.00  0.00  0.29  0.00  0.00  0.58  0.01  0.00
  YS02001596YS02001600    1.00   0.13  0.00  0.00  0.32  0.01  0.00  0.54  0.02  0.00
  YS02001600YS02001601    1.00   0.13  0.00  0.00  0.87  0.00  0.00  0.00  0.52  0.00
  YS02001601YS02001602    1.00   0.13  0.00  0.00  0.87  0.00  0.00  0.00  0.00  0.00
  YS02001602YS02001605    1.00   0.13  0.00  0.00  0.87  0.00  0.00  0.00  0.00  0.00
  YS02001605YS02001607    1.00   0.13  0.00  0.00  0.87  0.00  0.00  0.00  0.00  0.00
  YS02001607YS02001610    1.00   0.13  0.00  0.00  0.87  0.00  0.00  0.00  0.00  0.00
  YS02001610YS02001613    1.00   0.13  0.00  0.00  0.87  0.00  0.00  0.00  0.00  0.00
  YS02001613YS02001616    1.00   0.13  0.00  0.00  0.87  0.00  0.00  0.00  0.00  0.00
  YS02001616YS02001619    1.00   0.13  0.00  0.00  0.87  0.00  0.00  0.00  0.00  0.00
  YS02001619YS02001622    1.00   0.13  0.00  0.00  0.87  0.00  0.00  0.00  0.24  0.00
  YS02001622YS02001625    1.00   0.13  0.00  0.00  0.87  0.00  0.00  0.00  0.00  0.00
  YS02001625YS02001629    1.00   0.13  0.01  0.00  0.33  0.00  0.54  0.00  0.00  0.00
  YS02001629YS02163301    1.00   0.13  0.00  0.00  0.87  0.00  0.00  0.00  0.00  0.00
  YS02001633YS02163601    1.00   0.00  0.01  0.00  0.99  0.00  0.00  0.00  0.12  0.00
  YS02001641YS02001644    1.00   0.00  0.01  0.00  0.99  0.00  0.00  0.00  0.00  0.00
  YS02001644YS02001647    1.00   0.00  0.13  0.00  0.87  0.00  0.00  0.00  0.00  0.00
  YS02001647YS02001649    1.00   0.00  0.13  0.00  0.69  0.18  0.00  0.00  0.53  0.00
  YS02001649YS02001757    1.00   0.00  0.00  0.00  0.92  0.08  0.00  0.00  0.31  0.00
  YS02001652YS02001649    1.00   0.00  0.00  0.00  0.99  0.00  0.00  0.00  0.60  0.00
  YS02001655YS02001652    1.00   0.00  0.00  0.00  0.36  0.01  0.00  0.63  0.03  0.00
  YS02001658YS02001655    1.00   0.00  0.13  0.00  0.83  0.04  0.00  0.00  0.55  0.00
  YS02001661YS02001658    1.00   0.13  0.00  0.00  0.69  0.18  0.00  0.00  0.57  0.00
  YS02001664YS02001661    1.00   0.13  0.00  0.00  0.86  0.02  0.00  0.00  0.62  0.00
  YS02001745YS02001748    1.00   0.00  0.00  0.00  0.31  0.00  0.00  0.69  0.03  0.00
  YS02001748YS02001751    1.00   0.00  0.00  0.00  0.97  0.03  0.00  0.00  0.65  0.00
  YS02001751YS02001754    1.00   0.00  0.00  0.00  0.36  0.00  0.00  0.64  0.03  0.00
  YS02001754YS02001757    1.00   0.00  0.00  0.00  1.00  0.00  0.00  0.00  0.62  0.00
  YS02001757CaochengTiaoxuchi    1.00   0.00  0.00  0.00  0.99  0.01  0.00  0.00  0.48  0.00
  YS02001759YS02001757    1.00   0.00  0.00  0.00  0.99  0.01  0.00  0.00  0.45  0.00
  YS02001762YS02001759    1.00   0.00  0.00  0.00  1.00  0.00  0.00  0.00  0.03  0.00
  YS02001765YS02001762    1.00   0.00  0.00  0.00  1.00  0.00  0.00  0.00  0.55  0.00
  YS02001767YS02001765    1.00   0.00  0.00  0.00  1.00  0.00  0.00  0.00  0.01  0.00
  YS02001770YS02001767    1.00   0.00  0.00  0.00  1.00  0.00  0.00  0.00  0.00  0.00
  YS02001774YS02001770    1.00   0.00  0.12  0.00  0.73  0.00  0.14  0.00  0.00  0.00
  YS02001779YS02001774    1.00   0.00  0.00  0.00  1.00  0.00  0.00  0.00  0.63  0.00
  YS02001783YS02001784    1.00   0.00  0.13  0.00  0.87  0.00  0.00  0.00  0.52  0.00
  YS02001784YS02001785    1.00   0.00  0.00  0.00  1.00  0.00  0.00  0.00  0.12  0.00
  YS02001786YS02001788    1.00   0.00  0.00  0.00  0.89  0.11  0.00  0.00  0.00  0.00
  YS02001788YS02001790    1.00   0.00  0.00  0.00  0.27  0.73  0.00  0.00  0.72  0.00
  YS02001790YS02001791    1.00   0.00  0.00  0.00  0.01  0.99  0.00  0.00  0.10  0.00
  YS02001791YS02001793    1.00   0.00  0.00  0.00  0.00  1.00  0.00  0.00  0.05  0.00
  YS02001793JiankangQianchi    1.00   0.00  0.00  0.00  0.97  0.03  0.00  0.00  0.76  0.00
  YS02001882YS02001884    1.00   0.13  0.00  0.00  0.87  0.00  0.00  0.00  0.00  0.00
  YS02001884YS02001887    1.00   0.06  0.05  0.00  0.89  0.00  0.00  0.00  0.00  0.00
  YS02001887YS02001890    1.00   0.00  0.00  0.00  0.97  0.00  0.03  0.00  0.00  0.00
  YS02001890YS02001895    1.00   0.00  0.13  0.00  0.87  0.00  0.00  0.00  0.00  0.00
  YS02001895YS02001898    1.00   0.13  0.00  0.00  0.86  0.00  0.00  0.00  0.00  0.00
  YS02001898YS02001901    1.00   0.13  0.00  0.00  0.87  0.00  0.00  0.00  0.00  0.00
  YS02001901YS02001904    1.00   0.13  0.00  0.00  0.87  0.00  0.00  0.00  0.00  0.00
  YS02001904YS02001907    1.00   0.00  0.13  0.00  0.87  0.00  0.00  0.00  0.00  0.00
  YS02001907YS02006553    1.00   0.00  0.02  0.00  0.98  0.00  0.00  0.00  0.00  0.00
  YS02001910YS02001907    1.00   0.00  0.00  0.00  0.97  0.00  0.00  0.03  0.10  0.00
  YS02001915YS02001910    1.00   0.00  0.00  0.00  0.98  0.02  0.00  0.00  0.10  0.00
  YS02001918YS02001915    1.00   0.00  0.01  0.00  0.98  0.02  0.00  0.00  0.61  0.00
  YS02001920YS02001918    1.00   0.00  0.01  0.00  0.99  0.00  0.00  0.00  0.00  0.00
  YS02001923YS02001920    1.00   0.00  0.00  0.00  1.00  0.00  0.00  0.00  0.75  0.00
  YS02001926YS02001923    1.00   0.00  0.07  0.00  0.24  0.00  0.68  0.00  0.00  0.00
  YS02001929YS02001926    1.00   0.00  0.13  0.00  0.87  0.00  0.00  0.00  0.63  0.00
  YS02006553YS02006556    1.00   0.01  0.00  0.00  0.99  0.00  0.00  0.00  0.03  0.00
  YS02006556YS02006558    1.00   0.00  0.00  0.00  1.00  0.00  0.00  0.00  0.00  0.00
  YS02006558YS02006561    1.00   0.13  0.00  0.00  0.24  0.63  0.00  0.00  0.12  0.00
  YS02006561YS02001783    1.00   0.13  0.00  0.00  0.26  0.61  0.00  0.00  0.60  0.00
  YS02163301YS02001633    1.00   0.00  0.13  0.00  0.87  0.00  0.00  0.00  0.00  0.00
  YS02163601YS02164001    1.00   0.00  0.08  0.00  0.92  0.00  0.00  0.00  0.00  0.00
  YS02164001YS02001641    1.00   0.01  0.07  0.00  0.92  0.00  0.00  0.00  0.05  0.00
  
  
  *************************
  Conduit Surcharge Summary
  *************************
  
  ----------------------------------------------------------------------------
                                                           Hours        Hours 
                         --------- Hours Full --------   Above Full   Capacity
  Conduit                Both Ends  Upstream  Dnstream   Normal Flow   Limited
  ----------------------------------------------------------------------------
  WS02003072WS02003073        0.01      0.01      0.01      2.52         0.01
  WS02004403WS02004404        0.01      0.01      0.02      0.01         0.01
  WS02004404WS02004405        0.01      0.02      0.01      4.73         0.01
  WS02004405WS02004406        0.01      0.01      0.01      1.94         0.01
  WS02006109WS02006110        1.59      1.59      3.26      1.91         0.01
  WS02006110WS02006113        0.01      0.01      3.25      0.01         0.01
  WS02006111WS02006112        0.01      0.01      3.39      0.01         0.01
  WS02006112WS02006115        0.01      0.01      2.06      0.01         0.01
  WS02006228WS02006109        3.24      3.26      3.24      3.57         3.23
  WS02006229WS02006228        3.23      3.24      3.23      3.38         3.21
  WS02006230WS02006229        3.29      3.35      3.29      5.64         3.29
  WS02006231WS02006230        1.58      1.58      2.15      5.24         0.01
  WS02006232WS02006231        1.99      1.99      3.26      2.12         0.01
  WS02006234WS02006232        3.12      3.13      3.26      2.09         2.01
  WS02006235WS02006234        2.43      2.44      3.12      4.98         0.05
  WS02006238WS02006235        3.16      3.16      3.27      0.01         0.03
  WS02006239WS02006238        3.22      3.26      3.22      3.27         2.76
  WS02006240WS02006239        3.18      3.24      3.18      3.27         2.55
  WS02006242WS02006240        3.24      3.24      3.26      3.39         0.01
  WS02006243WS02006242        3.24      3.24      3.25      0.01         0.13
  WS02006245WS02006243        3.23      3.23      3.23      1.59         1.70
  WS02006247WS02006245        3.23      3.23      3.23      4.75         3.18
  WS02006248WS02006247        3.22      3.22      3.23      0.01         0.13
  WS02006249WS02006248        3.22      3.22      3.22      4.68         0.01
  WS02006251WS02006249        3.22      3.22      3.22      3.33         3.08
  WS02006252WS02006251        3.38      3.38      3.38      3.38         0.01
  WS02006256WS02006235        5.04      5.12      6.94      2.37         0.01
  YS02001580YS02001583        2.05      2.05      2.08      0.01         0.01
  YS02001583YS02001586        2.05      2.05      2.14      0.01         0.01
  YS02001586YS02001590        2.15      2.15      2.19      0.01         0.01
  YS02001590YS02001593        2.19      2.19      2.20      2.23         0.01
  YS02001593YS02001596        2.20      2.20      2.25      0.01         0.01
  YS02001596YS02001600        2.27      2.27      2.34      0.01         0.01
  YS02001600YS02001601        2.37      2.37      2.52      0.01         0.01
  YS02001601YS02001602        2.48      2.48      2.54      2.27         0.01
  YS02001602YS02001605        2.46      2.46      2.48      2.97         0.01
  YS02001605YS02001607        2.44      2.46      2.46      2.37         2.34
  YS02001607YS02001610        2.21      2.21      2.23      0.01         0.01
  YS02001610YS02001613        2.21      2.21      2.23      0.01         0.01
  YS02001613YS02001616        2.18      2.18      2.21      0.01         0.01
  YS02001616YS02001619        2.17      2.17      2.18      0.66         0.59
  YS02001619YS02001622        2.17      2.17      2.18      2.09         2.00
  YS02001622YS02001625        2.18      2.18      2.32      0.01         0.01
  YS02001625YS02001629        2.16      2.16      2.32      0.01         0.01
  YS02001629YS02163301        2.34      2.34      2.35      0.01         0.02
  YS02001633YS02163601        2.37      2.37      2.41      0.03         0.02
  YS02001641YS02001644        2.37      2.38      2.37      2.59         2.19
  YS02001644YS02001647        2.25      2.25      2.37      0.02         0.01
  YS02001647YS02001649        2.25      2.25      2.38      0.01         0.01
  YS02001649YS02001757        2.38      2.38      2.45      0.05         0.03
  YS02001652YS02001649        2.24      2.24      2.38      0.01         0.01
  YS02001655YS02001652        2.09      2.09      2.22      0.01         0.01
  YS02001658YS02001655        1.90      1.90      2.09      0.01         0.01
  YS02001661YS02001658        0.88      0.88      1.90      0.01         0.01
  YS02001664YS02001661        0.01      0.01      1.49      0.01         0.01
  YS02001745YS02001748        0.01      0.01      1.86      0.01         0.01
  YS02001748YS02001751        1.91      1.91      2.05      0.01         0.01
  YS02001751YS02001754        2.05      2.05      2.18      0.01         0.01
  YS02001754YS02001757        2.21      2.21      2.45      0.01         0.01
  YS02001757CaochengTiaoxuchi        2.38      2.45      3.25      0.78         0.69
  YS02001759YS02001757        2.38      2.38      2.45      0.01         0.04
  YS02001762YS02001759        2.36      2.36      2.38      0.01         0.02
  YS02001765YS02001762        2.32      2.32      2.36      0.01         0.01
  YS02001767YS02001765        2.29      2.29      2.32      0.01         0.02
  YS02001770YS02001767        2.28      2.29      2.29      1.97         1.74
  YS02001774YS02001770        2.27      2.27      2.34      0.01         0.01
  YS02001779YS02001774        2.16      2.16      2.34      0.01         0.01
  YS02001783YS02001784        1.97      1.99      1.97      2.04         1.97
  YS02001784YS02001785        1.92      1.97      1.92      2.11         1.92
  YS02001786YS02001788        0.01      1.92      0.01      2.08         0.01
  YS02001790YS02001791        0.01      0.01      0.01      1.97         0.01
  YS02001793JiankangQianchi        0.01      0.01      7.70      0.01         0.01
  YS02001882YS02001884        1.96      1.96      1.97      0.01         0.01
  YS02001884YS02001887        1.98      1.98      1.99      0.01         0.01
  YS02001887YS02001890        1.99      1.99      2.00      1.04         0.01
  YS02001890YS02001895        1.95      1.95      2.00      0.01         0.01
  YS02001895YS02001898        1.95      1.95      1.95      0.01         0.01
  YS02001898YS02001901        1.95      1.95      1.98      0.01         0.01
  YS02001901YS02001904        1.97      1.97      1.98      0.01         0.01
  YS02001904YS02001907        1.97      1.97      2.08      0.01         0.01
  YS02001907YS02006553        2.12      2.12      2.14      0.01         0.01
  YS02001910YS02001907        2.00      2.00      2.07      0.01         0.01
  YS02001915YS02001910        1.96      1.96      2.00      0.01         0.01
  YS02001918YS02001915        1.91      1.91      1.96      0.01         0.01
  YS02001920YS02001918        1.91      1.91      1.92      0.01         0.01
  YS02001923YS02001920        1.89      1.89      1.92      0.01         0.01
  YS02001926YS02001923        1.02      1.02      1.13      0.01         0.01
  YS02001929YS02001926        0.01      0.01      1.13      0.01         0.01
  YS02006553YS02006556        2.04      2.04      2.08      0.01         0.01
  YS02006556YS02006558        2.06      2.06      2.08      0.01         0.01
  YS02006558YS02006561        1.93      2.03      1.93      2.10         1.93
  YS02006561YS02001783        1.89      1.89      1.99      0.01         0.01
  YS02163301YS02001633        2.35      2.35      2.39      0.01         0.01
  YS02163601YS02164001        2.37      2.37      2.41      0.02         0.01
  YS02164001YS02001641        2.37      2.37      2.38      0.18         0.26
  
  
  ***************
  Pumping Summary
  ***************
  
  ---------------------------------------------------------------------------------------------------------
                                                  Min       Avg       Max     Total     Power    % Time Off
                        Percent   Number of      Flow      Flow      Flow    Volume     Usage    Pump Curve
  Pump                 Utilized   Start-Ups       LPS       LPS       LPS  10^6 ltr     Kw-hr    Low   High
  ---------------------------------------------------------------------------------------------------------
  CC-R1                   35.31           2      0.00    683.00    683.00     6.945    140.42    0.0   58.2
  CC-R2                   32.29           2      0.00    683.00    683.00     6.352    129.50    0.0   63.7
  CC-S1                   55.25           3      0.00    200.00    200.00     3.182     15.05    0.0   35.3
  CC-S2                   47.42           5      0.00    200.00    200.00     2.731     12.48    0.0   41.2
  JK-R1                   22.32          26      0.00   1000.00   1000.00     6.429     81.66    0.0    0.0
  JK-R2                    0.16           1      0.00   1000.00   1000.00     0.047      0.36    0.0    0.0
  JK-S                    29.59          34      0.00    300.00    300.00     2.557     32.36    0.0    0.0
  

  Analysis begun on:  Wed Apr 23 23:56:52 2025
  Analysis ended on:  Wed Apr 23 23:56:53 2025
  Total elapsed time: 00:00:01