
  EPA STORM WATER MANAGEMENT MODEL - VERSION 5.2 (Build 5.2.4)
  PYSWMM TOOLKIT API - VERSION v1.0 (2023-11-27)
  ------------------------------------------------------------

  WARNING 04: minimum elevation drop used for Conduit WS02004404WS02004405
  WARNING 03: negative offset ignored for Link YS02001904YS02001907
  
  ****************
  Analysis Options
  ****************
  Flow Units ............... LPS
  Process Models:
    Rainfall/Runoff ........ YES
    RDII ................... NO
    Snowmelt ............... NO
    Groundwater ............ NO
    Flow Routing ........... YES
    Ponding Allowed ........ NO
    Water Quality .......... NO
  Infiltration Method ...... HORTON
  Flow Routing Method ...... DYNWAVE
  Surcharge Method ......... EXTRAN
  Starting Date ............ 08/28/2015 08:00:00
  Ending Date .............. 08/28/2015 16:00:00
  Antecedent Dry Days ...... 8.0
  Report Time Step ......... 00:01:00
  Wet Time Step ............ 00:01:00
  Dry Time Step ............ 00:01:00
  Routing Time Step ........ 30.00 sec
  Variable Time Step ....... YES
  Maximum Trials ........... 8
  Number of Threads ........ 4
  Head Tolerance ........... 0.001500 m
  
  
  **************************        Volume         Depth
  Runoff Quantity Continuity     hectare-m            mm
  **************************     ---------       -------
  Total Precipitation ......         2.296        69.221
  Evaporation Loss .........         0.000         0.000
  Infiltration Loss ........         0.103         3.093
  Surface Runoff ...........         2.161        65.148
  Final Storage ............         0.033         0.996
  Continuity Error (%) .....        -0.024
  
  
  **************************        Volume        Volume
  Flow Routing Continuity        hectare-m      10^6 ltr
  **************************     ---------     ---------
  Dry Weather Inflow .......         0.025         0.251
  Wet Weather Inflow .......         2.161        21.608
  Groundwater Inflow .......         0.000         0.000
  RDII Inflow ..............         0.000         0.000
  External Inflow ..........         0.083         0.834
  External Outflow .........         1.483        14.833
  Flooding Loss ............         0.773         7.726
  Evaporation Loss .........         0.000         0.000
  Exfiltration Loss ........         0.000         0.000
  Initial Stored Volume ....         0.243         2.431
  Final Stored Volume ......         0.258         2.581
  Continuity Error (%) .....        -0.068
  
  
  *************************
  Highest Continuity Errors
  *************************
  Node YS02001884 (4.93%)
  Node YS02001583 (-4.43%)
  
  
  ***************************
  Time-Step Critical Elements
  ***************************
  Link WS02006252WS02006251 (56.70%)
  Link WS02006238WS02006235 (10.24%)
  Link WS02003066WSF200 (7.70%)
  Link YS02001791YS02001793 (7.03%)
  Link WS02006235WS02006234 (5.42%)
  
  
  ********************************
  Highest Flow Instability Indexes
  ********************************
  Link WS02006113WS02006111 (43)
  Link WS02006111WS02006112 (19)
  Link WS02006252WS02006251 (12)
  Link WS02006238WS02006235 (12)
  Link WS02006256WS02006235 (11)
  
  
  *********************************
  Most Frequent Nonconverging Nodes
  *********************************
  Node CC-1 (9.41%)
  Node CC-2 (9.41%)
  Node JK-1 (9.41%)
  Node JK-2 (9.41%)
  Node WSC (9.41%)
  
  
  *************************
  Routing Time Step Summary
  *************************
  Minimum Time Step           :     0.02 sec
  Average Time Step           :     1.67 sec
  Maximum Time Step           :     6.43 sec
  % of Time in Steady State   :     0.00
  Average Iterations per Step :     2.81
  % of Steps Not Converging   :     9.41
  Time Step Frequencies       :
     30.000 - 13.228 sec      :     0.00 %
     13.228 -  5.833 sec      :     2.28 %
      5.833 -  2.572 sec      :    20.83 %
      2.572 -  1.134 sec      :    15.60 %
      1.134 -  0.500 sec      :    61.30 %
  
  
  ***************************
  Subcatchment Runoff Summary
  ***************************
  
  ------------------------------------------------------------------------------------------------------------------------------
                            Total      Total      Total      Total     Imperv       Perv      Total       Total     Peak  Runoff
                           Precip      Runon       Evap      Infil     Runoff     Runoff     Runoff      Runoff   Runoff   Coeff
  Subcatchment                 mm         mm         mm         mm         mm         mm         mm    10^6 ltr      LPS
  ------------------------------------------------------------------------------------------------------------------------------
  sub60                     69.22       0.00       0.00       1.83      59.72       6.48      66.20        0.87   653.10   0.956
  sub61                     69.22       0.00       0.00       2.66      56.33       9.11      65.44        1.20   908.71   0.945
  sub62                     69.22       0.00       0.00       1.22      62.40       4.32      66.72        1.83  1279.29   0.964
  sub63                     69.22       0.00       0.00       4.96      48.18      15.12      63.30        1.44  1039.26   0.915
  sub64                     69.22       0.00       0.00       2.50      57.63       7.89      65.52        1.57  1050.58   0.947
  sub65                     69.22       0.00       0.00       2.16      58.97       6.84      65.81        1.81  1172.64   0.951
  sub66                     69.22       0.00       0.00       6.20      48.07      13.88      61.95        2.89  1579.01   0.895
  sub67                     69.22       0.00       0.00       1.17      62.44       4.37      66.82        1.24   971.92   0.965
  sub68                     69.22       0.00       0.00       2.20      58.35       7.49      65.84        1.81  1314.08   0.951
  sub69                     69.22       0.00       0.00       2.00      58.73       8.39      67.12        2.48  1556.60   0.970
  sub70                     69.22       0.00       0.00       6.73      45.52      16.81      62.33        1.80   885.47   0.900
  sub71                     69.22       0.00       0.00       1.25      62.36       4.28      66.64        1.74  1130.99   0.963
  sub72                     69.22       0.00       0.00       1.12      62.97       3.73      66.70        0.92   549.34   0.964
  
  
  ******************
  Node Depth Summary
  ******************
  
  ---------------------------------------------------------------------------------
                                 Average  Maximum  Maximum  Time of Max    Reported
                                   Depth    Depth      HGL   Occurrence   Max Depth
  Node                 Type       Meters   Meters   Meters  days hr:min      Meters
  ---------------------------------------------------------------------------------
  WS02003060           JUNCTION     0.22     0.38     5.31     0  02:36        0.38
  WS02003066           JUNCTION     0.18     0.30     5.85     0  02:33        0.30
  WS02003067           JUNCTION     0.47     0.70     6.02     0  02:32        0.70
  WS02003069           JUNCTION     0.24     0.43     5.01     0  02:34        0.43
  WS02003072           JUNCTION     0.30     0.50     4.87     0  02:34        0.50
  WS02003073           JUNCTION     0.17     0.30     4.36     0  02:35        0.30
  WS02004401           JUNCTION     0.55     0.85     6.85     0  02:30        0.85
  WS02004402           JUNCTION     0.58     0.88     6.84     0  02:30        0.88
  WS02004403           JUNCTION     0.60     0.89     6.82     0  02:31        0.89
  WS02004404           JUNCTION     0.67     0.96     6.81     0  02:31        0.96
  WS02004405           JUNCTION     0.67     0.95     6.80     0  02:31        0.95
  WS02004406           JUNCTION     0.68     0.96     6.79     0  02:31        0.95
  WS02004407           JUNCTION     0.16     0.30     6.61     0  02:31        0.29
  WS02004409           JUNCTION     0.36     0.67     6.44     0  02:31        0.67
  WS02004410           JUNCTION     0.38     0.68     6.40     0  02:32        0.68
  WS02004411           JUNCTION     0.40     0.69     6.37     0  02:32        0.69
  WS02004412           JUNCTION     0.43     0.70     6.34     0  02:32        0.70
  WS02004413           JUNCTION     0.58     0.86     6.33     0  02:32        0.86
  WS02006109           JUNCTION     0.62     1.20     7.82     0  02:47        1.20
  WS02006110           JUNCTION     0.62     1.22     7.80     0  02:47        1.14
  WS02006111           JUNCTION     0.16     0.29     6.99     0  03:02        0.29
  WS02006112           JUNCTION     0.70     1.08     6.97     0  02:47        1.05
  WS02006113           JUNCTION     0.25     0.46     7.35     0  03:54        0.46
  WS02006115           JUNCTION     0.43     0.75     6.89     0  02:30        0.75
  WS02006116           JUNCTION     0.52     0.83     6.87     0  02:30        0.83
  WS02006228           JUNCTION     0.61     1.19     7.85     0  02:47        1.19
  WS02006229           JUNCTION     0.58     1.20     7.89     0  02:46        1.14
  WS02006230           JUNCTION     0.57     1.35     8.09     0  02:46        1.24
  WS02006231           JUNCTION     0.39     1.44     8.56     0  02:40        1.05
  WS02006232           JUNCTION     0.52     1.35     8.39     0  02:25        1.28
  WS02006234           JUNCTION     0.44     1.61     8.77     0  02:40        1.27
  WS02006235           JUNCTION     0.48     1.90     9.06     0  02:40        1.31
  WS02006238           JUNCTION     0.51     1.96     9.11     0  02:40        1.35
  WS02006239           JUNCTION     0.48     1.92     9.13     0  02:40        1.36
  WS02006240           JUNCTION     0.45     1.77     9.06     0  02:40        1.33
  WS02006242           JUNCTION     0.52     1.55     8.82     0  02:40        1.39
  WS02006243           JUNCTION     0.42     1.42     8.84     0  02:40        1.27
  WS02006245           JUNCTION     0.43     1.32     8.81     0  02:40        1.21
  WS02006247           JUNCTION     0.46     1.40     8.90     0  02:07        1.40
  WS02006248           JUNCTION     0.42     1.10     8.69     0  02:07        1.10
  WS02006249           JUNCTION     0.46     1.09     8.69     0  02:07        1.09
  WS02006251           JUNCTION     0.45     1.49     9.16     0  02:40        1.42
  WS02006252           JUNCTION     0.35     1.50     9.74     0  00:00        0.99
  WS02006256           JUNCTION     0.92     2.35     9.28     0  00:00        2.35
  WSF200               JUNCTION     0.15     0.29     5.52     0  02:35        0.29
  YS02001580           JUNCTION     0.07     1.05     9.59     0  02:10        0.77
  YS02001583           JUNCTION     0.10     0.99     9.49     0  02:10        0.82
  YS02001586           JUNCTION     0.16     1.13     9.30     0  02:10        1.13
  YS02001590           JUNCTION     0.24     1.40     9.26     0  02:10        1.40
  YS02001593           JUNCTION     0.18     1.33     9.20     0  02:10        1.29
  YS02001596           JUNCTION     0.24     1.68     9.10     0  02:10        1.66
  YS02001600           JUNCTION     0.30     1.87     9.00     0  02:10        1.87
  YS02001601           JUNCTION     0.48     2.06     8.90     0  02:10        2.06
  YS02001602           JUNCTION     0.39     1.87     8.77     0  02:13        1.87
  YS02001605           JUNCTION     0.37     1.78     8.68     0  02:24        1.78
  YS02001607           JUNCTION     0.37     1.68     8.53     0  02:24        1.65
  YS02001610           JUNCTION     0.42     1.68     8.48     0  02:14        1.68
  YS02001613           JUNCTION     0.38     1.67     8.51     0  02:24        1.67
  YS02001616           JUNCTION     0.31     1.61     8.52     0  02:24        1.61
  YS02001619           JUNCTION     0.29     1.61     8.54     0  02:24        1.61
  YS02001622           JUNCTION     0.28     1.59     8.49     0  02:24        1.58
  YS02001625           JUNCTION     0.54     1.78     8.38     0  02:14        1.78
  YS02001629           JUNCTION     0.39     1.85     8.40     0  02:15        1.85
  YS02001633           JUNCTION     0.47     2.08     8.53     0  02:24        2.08
  YS02001641           JUNCTION     0.46     2.03     8.47     0  02:24        2.03
  YS02001644           JUNCTION     0.46     1.92     8.35     0  02:16        1.92
  YS02001647           JUNCTION     0.26     1.79     8.40     0  02:24        1.79
  YS02001649           JUNCTION     0.29     2.05     8.44     0  02:24        2.05
  YS02001652           JUNCTION     0.20     1.90     8.50     0  02:24        1.90
  YS02001655           JUNCTION     0.15     1.80     8.65     0  02:24        1.80
  YS02001658           JUNCTION     0.11     1.66     8.80     0  02:16        1.45
  YS02001661           JUNCTION     0.14     1.27     8.68     0  02:20        1.21
  YS02001664           JUNCTION     0.05     0.70     8.63     0  02:24        0.69
  YS02001745           JUNCTION     0.06     0.93     8.45     0  02:24        0.92
  YS02001748           JUNCTION     0.11     1.41     8.49     0  02:17        1.34
  YS02001751           JUNCTION     0.13     1.64     8.52     0  02:24        1.64
  YS02001754           JUNCTION     0.17     1.89     8.50     0  02:24        1.89
  YS02001757           JUNCTION     0.32     2.21     8.47     0  02:24        2.21
  YS02001759           JUNCTION     0.26     2.21     8.57     0  02:24        2.21
  YS02001762           JUNCTION     0.25     2.15     8.55     0  02:24        2.15
  YS02001765           JUNCTION     0.24     2.10     8.55     0  02:24        2.10
  YS02001767           JUNCTION     0.23     2.03     8.52     0  02:24        2.03
  YS02001770           JUNCTION     0.24     1.95     8.44     0  02:22        1.95
  YS02001774           JUNCTION     0.31     2.00     8.43     0  02:24        2.00
  YS02001779           JUNCTION     0.16     1.68     8.37     0  02:14        1.68
  YS02001783           JUNCTION     0.20     1.34     7.48     0  02:24        1.23
  YS02001784           JUNCTION     0.22     1.19     7.25     0  02:24        1.12
  YS02001786           JUNCTION     0.18     0.94     6.97     0  02:24        0.88
  YS02001788           JUNCTION     0.13     0.62     6.60     0  02:25        0.62
  YS02001790           JUNCTION     0.16     0.73     6.37     0  02:22        0.72
  YS02001791           JUNCTION     0.10     0.44     5.91     0  02:24        0.43
  YS02001793           JUNCTION     0.05     0.30     5.13     0  02:30        0.29
  YS02001882           JUNCTION     0.26     1.69     8.41     0  02:24        1.66
  YS02001884           JUNCTION     0.35     1.89     8.51     0  02:24        1.89
  YS02001887           JUNCTION     0.42     2.00     8.54     0  02:24        2.00
  YS02001890           JUNCTION     0.45     1.81     8.32     0  02:16        1.81
  YS02001895           JUNCTION     0.23     1.57     8.31     0  02:24        1.56
  YS02001898           JUNCTION     0.24     1.57     8.31     0  02:24        1.56
  YS02001901           JUNCTION     0.35     1.68     8.29     0  02:16        1.67
  YS02001904           JUNCTION     0.33     1.65     8.28     0  02:24        1.64
  YS02001907           JUNCTION     0.64     1.96     8.25     0  02:16        1.96
  YS02001910           JUNCTION     0.45     2.05     8.56     0  02:24        2.05
  YS02001915           JUNCTION     0.26     2.00     8.72     0  02:24        2.00
  YS02001918           JUNCTION     0.14     1.81     8.88     0  02:17        1.75
  YS02001920           JUNCTION     0.21     2.14     9.15     0  02:17        1.65
  YS02001923           JUNCTION     0.10     2.03     9.29     0  02:17        1.42
  YS02001926           JUNCTION     0.14     1.90     9.35     0  02:17        1.26
  YS02001929           JUNCTION     0.07     1.78     9.47     0  02:17        1.03
  YS02006553           JUNCTION     0.65     2.14     8.42     0  02:24        2.14
  YS02006556           JUNCTION     0.62     2.36     8.67     0  02:24        2.36
  YS02006558           JUNCTION     0.66     2.50     8.77     0  02:24        2.50
  YS02006561           JUNCTION     0.12     1.04     7.70     0  02:24        0.90
  YS02163301           JUNCTION     0.41     2.01     8.53     0  02:24        2.01
  YS02163601           JUNCTION     0.51     2.08     8.48     0  02:24        2.08
  YS02164001           JUNCTION     0.44     1.95     8.41     0  02:24        1.94
  CC-1                 OUTFALL      0.00     0.00     0.00     0  00:00        0.00
  CC-2                 OUTFALL      0.00     0.00     0.00     0  00:00        0.00
  JK-1                 OUTFALL      0.00     0.00     0.00     0  00:00        0.00
  JK-2                 OUTFALL      0.00     0.00     0.00     0  00:00        0.00
  WSC                  OUTFALL      0.17     0.30     0.97     0  02:35        0.30
  CC-storage           STORAGE      0.94     1.83     7.33     0  02:46        1.83
  JK-storage           STORAGE      3.23     4.24     5.04     0  02:25        4.20
  
  
  *******************
  Node Inflow Summary
  *******************
  
  -------------------------------------------------------------------------------------------------
                                  Maximum  Maximum                  Lateral       Total        Flow
                                  Lateral    Total  Time of Max      Inflow      Inflow     Balance
                                   Inflow   Inflow   Occurrence      Volume      Volume       Error
  Node                 Type           LPS      LPS  days hr:min    10^6 ltr    10^6 ltr     Percent
  -------------------------------------------------------------------------------------------------
  WS02003060           JUNCTION     16.53   550.10     0  02:35       0.476        5.69       0.064
  WS02003066           JUNCTION      0.00   533.28     0  02:33           0        5.22       0.038
  WS02003067           JUNCTION      0.00   533.22     0  02:32           0        5.22       0.093
  WS02003069           JUNCTION      0.32   550.13     0  02:33     0.00922         5.7       0.108
  WS02003072           JUNCTION      0.00   549.73     0  02:34           0        5.69       0.174
  WS02003073           JUNCTION      1.82   551.55     0  02:34      0.0524        5.73       0.150
  WS02004401           JUNCTION      0.00   538.39     0  02:37           0        5.34       0.216
  WS02004402           JUNCTION      0.00   537.09     0  02:37           0        5.33       0.216
  WS02004403           JUNCTION      0.00   537.19     0  02:37           0        5.32       0.209
  WS02004404           JUNCTION      0.16   536.03     0  02:31     0.00467        5.31       0.179
  WS02004405           JUNCTION      0.04   535.82     0  02:31      0.0011         5.3       0.247
  WS02004406           JUNCTION      0.00   536.08     0  02:38           0        5.29       0.425
  WS02004407           JUNCTION      0.00   535.44     0  02:31           0        5.27       0.036
  WS02004409           JUNCTION      0.00   535.19     0  02:31           0        5.27       0.082
  WS02004410           JUNCTION      0.00   534.22     0  02:31           0        5.26       0.120
  WS02004411           JUNCTION      0.00   533.95     0  02:32           0        5.26       0.141
  WS02004412           JUNCTION      0.00   533.50     0  02:32           0        5.25       0.178
  WS02004413           JUNCTION      0.00   533.39     0  02:32           0        5.24       0.310
  WS02006109           JUNCTION      1.23   556.08     0  02:46      0.0354         5.4       0.183
  WS02006110           JUNCTION      0.00   556.75     0  02:46           0        5.39       0.134
  WS02006111           JUNCTION      0.00   560.80     0  03:54           0        5.38       0.016
  WS02006112           JUNCTION      0.00   542.17     0  02:54           0        5.38       0.374
  WS02006113           JUNCTION      0.00   568.00     0  02:47           0        5.38       0.047
  WS02006115           JUNCTION      0.00   551.00     0  02:16           0        5.36       0.151
  WS02006116           JUNCTION      0.00   539.03     0  02:54           0        5.35       0.112
  WS02006228           JUNCTION      0.00   555.36     0  02:46           0        5.36       0.072
  WS02006229           JUNCTION      0.00   555.55     0  02:46           0        5.37       0.135
  WS02006230           JUNCTION     10.28   592.79     0  02:35       0.296        5.37       0.057
  WS02006231           JUNCTION      0.00   588.34     0  02:46           0        5.08      -0.049
  WS02006232           JUNCTION      0.00   586.89     0  02:46           0        5.09       0.290
  WS02006234           JUNCTION      0.00   579.39     0  02:46           0        5.08      -0.234
  WS02006235           JUNCTION      0.00   568.75     0  02:46           0        5.14       0.241
  WS02006238           JUNCTION      0.00   425.62     0  03:05           0        4.23      -0.134
  WS02006239           JUNCTION      0.00   422.77     0  03:05           0         4.2      -0.180
  WS02006240           JUNCTION      0.00   423.59     0  03:30           0        4.17      -0.040
  WS02006242           JUNCTION      0.00   424.39     0  03:30           0        4.14       0.039
  WS02006243           JUNCTION      0.00   425.68     0  03:30           0        4.13       0.073
  WS02006245           JUNCTION      0.00   427.82     0  03:30           0        4.15       0.350
  WS02006247           JUNCTION      0.00   427.56     0  03:30           0        4.15       0.045
  WS02006248           JUNCTION      0.00   426.79     0  03:30           0        4.15       0.061
  WS02006249           JUNCTION      0.00   459.02     0  00:00           0        4.38       0.349
  WS02006251           JUNCTION      0.08   407.61     0  03:30     0.00222        4.38      -0.045
  WS02006252           JUNCTION      0.00   400.00     0  00:00           0        4.38      -0.037
  WS02006256           JUNCTION      0.00   300.00     0  00:00           0        1.37      -0.799
  WSF200               JUNCTION      0.00   533.31     0  02:33           0        5.22       0.018
  YS02001580           JUNCTION      0.00    73.37     0  02:10           0     0.00418       2.274
  YS02001583           JUNCTION      0.00   123.67     0  02:10           0      0.0155      -4.240
  YS02001586           JUNCTION    885.47   885.47     0  02:26         1.8        1.81       0.055
  YS02001590           JUNCTION      0.00   317.97     0  02:29           0        1.36      -0.026
  YS02001593           JUNCTION      0.00   318.58     0  02:24           0        1.36       0.008
  YS02001596           JUNCTION      0.00   317.96     0  02:34           0        1.36      -0.015
  YS02001600           JUNCTION      0.00   318.07     0  02:29           0        1.36       0.020
  YS02001601           JUNCTION   1556.60  1874.17     0  02:25        2.48        3.84       0.021
  YS02001602           JUNCTION      0.00   493.43     0  02:10           0        2.31       0.018
  YS02001605           JUNCTION      0.00   492.98     0  02:10           0        2.19       0.025
  YS02001607           JUNCTION      0.00   492.74     0  02:10           0        2.19       0.092
  YS02001610           JUNCTION      0.00   888.10     0  02:26           0         2.5       0.094
  YS02001613           JUNCTION      0.00   552.78     0  02:26           0           2       0.086
  YS02001616           JUNCTION      0.00   551.39     0  02:26           0           2       0.017
  YS02001619           JUNCTION   1579.01  1579.01     0  02:26        2.89        4.58       0.002
  YS02001622           JUNCTION      0.00  1033.39     0  02:25           0        4.27      -0.001
  YS02001625           JUNCTION      0.00  1468.76     0  02:26           0        4.56       0.214
  YS02001629           JUNCTION      0.00   893.66     0  02:12           0        3.41       0.014
  YS02001633           JUNCTION   1172.84  1258.35     0  02:13        1.82        4.91       0.069
  YS02001641           JUNCTION      0.00  1254.28     0  02:13           0        4.59       0.062
  YS02001644           JUNCTION   1050.62  1689.59     0  02:25        1.57        6.16       0.055
  YS02001647           JUNCTION      0.00  1586.80     0  02:14           0        5.43       0.009
  YS02001649           JUNCTION      0.00  1759.46     0  02:15           0        6.87       0.003
  YS02001652           JUNCTION      0.00  1051.84     0  02:25           0        1.44      -0.073
  YS02001655           JUNCTION      0.15  1052.38     0  02:25     0.00443        1.44      -0.005
  YS02001658           JUNCTION      0.00  1052.14     0  02:25           0        1.44      -0.013
  YS02001661           JUNCTION      0.00  1052.36     0  02:25           0        1.44      -0.005
  YS02001664           JUNCTION   1039.26  1039.26     0  02:25        1.44        1.44      -0.007
  YS02001745           JUNCTION    653.11   653.11     0  02:25        0.87        0.87       0.143
  YS02001748           JUNCTION      0.04   656.54     0  02:25      0.0013        0.87      -0.286
  YS02001751           JUNCTION      0.01   657.03     0  02:25    0.000317       0.878       0.083
  YS02001754           JUNCTION      0.26   657.20     0  02:25     0.00749       0.892      -0.140
  YS02001757           JUNCTION      0.00  3014.43     0  02:24           0        10.5       0.007
  YS02001759           JUNCTION    908.75  1302.75     0  02:25         1.2        2.72      -0.011
  YS02001762           JUNCTION      0.00   674.71     0  02:19           0        1.51      -0.003
  YS02001765           JUNCTION      0.00   674.61     0  02:19           0        1.51       0.001
  YS02001767           JUNCTION      0.54   675.01     0  02:19      0.0154        1.51       0.007
  YS02001770           JUNCTION   1279.44  1279.44     0  02:25        1.83        1.88      -0.018
  YS02001774           JUNCTION      0.00   838.35     0  02:25           0       0.395       0.261
  YS02001779           JUNCTION      0.01   838.31     0  02:25    0.000144       0.349      -0.201
  YS02001783           JUNCTION      0.00  1184.27     0  02:24           0        4.13       0.005
  YS02001784           JUNCTION      1.06  1183.21     0  02:24      0.0305        4.16       0.011
  YS02001786           JUNCTION      0.06  1184.35     0  02:24     0.00162        4.16       0.018
  YS02001788           JUNCTION      0.07  1185.39     0  02:24     0.00204        4.16       0.007
  YS02001790           JUNCTION      0.15  1176.97     0  02:25     0.00446        4.16       0.016
  YS02001791           JUNCTION      0.00  1296.59     0  02:22           0        4.16      -0.022
  YS02001793           JUNCTION      0.00  1246.41     0  02:25           0        4.16       0.004
  YS02001882           JUNCTION      0.00    31.67     0  02:13           0      0.0125       4.871
  YS02001884           JUNCTION      0.00    43.80     0  02:12           0      0.0483       5.188
  YS02001887           JUNCTION    972.37   972.94     0  02:25        1.26        1.29       0.343
  YS02001890           JUNCTION      0.00   973.21     0  02:25           0        1.25       0.409
  YS02001895           JUNCTION      0.00   523.17     0  02:24           0         1.1       0.141
  YS02001898           JUNCTION      0.00   518.67     0  02:24           0         1.1       0.019
  YS02001901           JUNCTION      0.00   517.50     0  02:29           0         1.1       0.292
  YS02001904           JUNCTION      0.00   517.90     0  02:27           0        1.11       0.252
  YS02001907           JUNCTION      0.00  2350.32     0  02:25           0        3.86       0.468
  YS02001910           JUNCTION      0.00  1688.82     0  02:25           0        2.74       0.263
  YS02001915           JUNCTION   1131.01  1688.70     0  02:25        1.74        2.77       0.051
  YS02001918           JUNCTION      0.00   562.68     0  02:25           0        1.05       0.015
  YS02001920           JUNCTION      2.87   562.03     0  02:25      0.0827        1.03       0.095
  YS02001923           JUNCTION      0.04   559.01     0  02:25     0.00109       0.938      -0.053
  YS02001926           JUNCTION      0.05   558.96     0  02:25      0.0015       0.924      -0.022
  YS02001929           JUNCTION    549.34   549.34     0  02:26       0.917       0.918      -0.073
  YS02006553           JUNCTION      0.00   809.65     0  02:39           0        2.37       0.510
  YS02006556           JUNCTION      0.00   809.33     0  02:38           0        2.38       0.341
  YS02006558           JUNCTION   1314.96  1314.96     0  02:25        1.84        4.17       0.079
  YS02006561           JUNCTION      0.00  1178.66     0  02:24           0        4.13      -0.002
  YS02163301           JUNCTION      0.00   895.46     0  02:12           0        3.41       0.045
  YS02163601           JUNCTION      0.11  1257.12     0  02:13     0.00317        4.59       0.110
  YS02164001           JUNCTION      0.00  1255.54     0  02:13           0        4.59       0.051
  CC-1                 OUTFALL       0.00   683.00     0  00:00           0        3.64       0.000
  CC-2                 OUTFALL       0.00   683.00     0  00:00           0        2.73       0.000
  JK-1                 OUTFALL       0.00  1000.00     0  00:00           0        2.69       0.000
  JK-2                 OUTFALL       0.00  1000.00     0  00:00           0      0.0484       0.000
  WSC                  OUTFALL       0.00   551.40     0  02:35           0        5.72       0.000
  CC-storage           STORAGE       0.00  3018.82     0  02:24           0        12.7      -0.094
  JK-storage           STORAGE       0.00  1235.30     0  02:19           0        4.31       0.193
  
  
  **********************
  Node Surcharge Summary
  **********************
  
  Surcharging occurs when water rises above the top of the highest conduit.
  ---------------------------------------------------------------------
                                               Max. Height   Min. Depth
                                   Hours       Above Crown    Below Rim
  Node                 Type      Surcharged         Meters       Meters
  ---------------------------------------------------------------------
  WS02006109           JUNCTION        2.00          0.384        1.436
  WS02006110           JUNCTION        0.66          0.306        1.544
  WS02006112           JUNCTION        0.80          0.084        1.596
  WS02006228           JUNCTION        1.99          0.364        1.836
  WS02006229           JUNCTION        2.00          0.396        2.054
  WS02006230           JUNCTION        0.67          0.267        1.303
  WS02006231           JUNCTION        0.87          0.725        0.805
  WS02006232           JUNCTION        2.02          0.648        0.832
  WS02006234           JUNCTION        1.29          0.893        0.347
  WS02006235           JUNCTION        1.94          1.187        0.103
  WS02006238           JUNCTION        1.99          1.242        0.188
  WS02006239           JUNCTION        1.97          1.177        0.113
  WS02006240           JUNCTION        1.99          1.060        0.330
  WS02006242           JUNCTION        2.01          0.820        0.000
  WS02006243           JUNCTION        1.98          0.708        0.062
  WS02006245           JUNCTION        1.98          0.613        0.237
  WS02006247           JUNCTION        1.98          0.690        0.070
  WS02006248           JUNCTION        1.97          0.380        0.000
  WS02006249           JUNCTION        1.97          0.390        0.000
  WS02006251           JUNCTION        0.98          0.462        0.718
  WS02006252           JUNCTION        2.12          1.100        0.000
  WS02006256           JUNCTION        6.28          2.050        0.000
  YS02001580           JUNCTION        0.64          0.450        0.000
  YS02001583           JUNCTION        0.64          0.350        0.150
  YS02001586           JUNCTION        0.77          0.510        0.000
  YS02001590           JUNCTION        0.85          0.750        0.000
  YS02001593           JUNCTION        0.85          0.714        0.126
  YS02001596           JUNCTION        0.97          0.951        0.119
  YS02001600           JUNCTION        1.12          1.190        0.000
  YS02001601           JUNCTION        1.46          1.440        0.000
  YS02001602           JUNCTION        1.35          1.270        0.000
  YS02001605           JUNCTION        1.30          1.180        0.000
  YS02001607           JUNCTION        0.85          0.680        0.000
  YS02001610           JUNCTION        0.87          0.680        0.000
  YS02001613           JUNCTION        0.84          0.667        0.033
  YS02001616           JUNCTION        0.80          0.610        0.000
  YS02001619           JUNCTION        0.79          0.610        0.000
  YS02001622           JUNCTION        0.78          0.587        0.033
  YS02001625           JUNCTION        0.96          0.780        0.000
  YS02001629           JUNCTION        0.74          0.470        0.000
  YS02001633           JUNCTION        0.99          1.060        0.000
  YS02001641           JUNCTION        0.94          1.034        0.066
  YS02001644           JUNCTION        0.91          0.920        0.000
  YS02001647           JUNCTION        0.72          0.792        0.108
  YS02001649           JUNCTION        0.84          1.050        0.000
  YS02001652           JUNCTION        0.66          0.872        0.258
  YS02001655           JUNCTION        0.51          0.803        0.397
  YS02001658           JUNCTION        0.30          0.662        0.638
  YS02001661           JUNCTION        0.08          0.204        1.186
  YS02001748           JUNCTION        0.23          0.335        0.855
  YS02001751           JUNCTION        0.40          0.643        0.557
  YS02001754           JUNCTION        0.59          0.842        0.308
  YS02001757           JUNCTION        0.91          1.206        0.004
  YS02001759           JUNCTION        0.83          1.210        0.000
  YS02001762           JUNCTION        0.80          1.150        0.000
  YS02001765           JUNCTION        0.76          1.100        0.000
  YS02001767           JUNCTION        0.73          1.030        0.000
  YS02001770           JUNCTION        0.70          0.920        0.000
  YS02001774           JUNCTION        0.79          1.004        0.046
  YS02001779           JUNCTION        0.58          0.680        0.000
  YS02001783           JUNCTION        0.55          0.538        1.062
  YS02001784           JUNCTION        0.53          0.386        1.104
  YS02001786           JUNCTION        0.42          0.140        1.290
  YS02001882           JUNCTION        0.50          0.690        0.140
  YS02001884           JUNCTION        0.51          0.833        0.037
  YS02001887           JUNCTION        0.54          0.950        0.000
  YS02001890           JUNCTION        0.56          0.760        0.000
  YS02001895           JUNCTION        0.49          0.567        0.183
  YS02001898           JUNCTION        0.48          0.540        0.200
  YS02001901           JUNCTION        0.53          0.678        0.192
  YS02001904           JUNCTION        0.52          0.645        0.205
  YS02001907           JUNCTION        0.81          0.950        0.000
  YS02001910           JUNCTION        0.59          1.053        0.047
  YS02001915           JUNCTION        0.50          1.000        0.000
  YS02001918           JUNCTION        0.41          0.810        0.000
  YS02001920           JUNCTION        0.42          1.140        0.000
  YS02001923           JUNCTION        0.13          0.820        0.000
  YS02001926           JUNCTION        0.18          0.900        0.000
  YS02001929           JUNCTION        0.01          0.780        0.000
  YS02006553           JUNCTION        0.82          1.137        0.053
  YS02006556           JUNCTION        0.68          1.323        0.027
  YS02006558           JUNCTION        0.67          1.400        0.000
  YS02006561           JUNCTION        0.37          0.244        0.906
  YS02163301           JUNCTION        0.97          1.015        0.015
  YS02163601           JUNCTION        1.03          1.080        0.000
  YS02164001           JUNCTION        0.94          0.952        0.148
  
  
  *********************
  Node Flooding Summary
  *********************
  
  Flooding refers to all water that overflows a node, whether it ponds or not.
  --------------------------------------------------------------------------
                                                             Total   Maximum
                                 Maximum   Time of Max       Flood    Ponded
                        Hours       Rate    Occurrence      Volume     Depth
  Node                 Flooded       LPS   days hr:min    10^6 ltr    Meters
  --------------------------------------------------------------------------
  WS02006242              0.01     25.49      0  02:40       0.000     0.000
  WS02006248              0.02     23.73      0  02:40       0.001     0.000
  WS02006249              0.93     98.11      0  02:07       0.216     0.000
  WS02006252              0.01    245.63      0  00:00       0.000     0.000
  WS02006256              1.27    293.19      0  00:00       0.431     0.000
  YS02001580              0.01     39.43      0  02:10       0.000     0.000
  YS02001586              0.50    567.85      0  02:26       0.444     0.000
  YS02001590              0.01      8.57      0  02:10       0.000     0.000
  YS02001600              0.01      2.83      0  02:10       0.000     0.000
  YS02001601              0.70   1476.16      0  02:25       1.526     0.000
  YS02001602              0.61     64.44      0  02:24       0.125     0.000
  YS02001605              0.01      1.41      0  02:24       0.000     0.000
  YS02001607              0.01      4.34      0  02:24       0.000     0.000
  YS02001610              0.54    887.99      0  02:26       0.801     0.000
  YS02001616              0.01      1.07      0  02:24       0.000     0.000
  YS02001619              0.01      3.19      0  02:24       0.000     0.000
  YS02001625              0.51   1468.65      0  02:26       1.459     0.000
  YS02001629              0.14    134.49      0  02:25       0.027     0.000
  YS02001633              0.01      2.09      0  02:24       0.000     0.000
  YS02001644              0.26   1688.96      0  02:25       0.720     0.000
  YS02001649              0.01      1.74      0  02:24       0.000     0.000
  YS02001759              0.01      1.82      0  02:24       0.000     0.000
  YS02001762              0.01      0.17      0  02:24       0.000     0.000
  YS02001765              0.01      0.18      0  02:24       0.000     0.000
  YS02001767              0.01      0.43      0  02:24       0.000     0.000
  YS02001770              0.03     65.92      0  02:25       0.004     0.000
  YS02001779              0.22    837.81      0  02:25       0.330     0.000
  YS02001887              0.01      1.05      0  02:24       0.000     0.000
  YS02001890              0.20    456.21      0  02:25       0.141     0.000
  YS02001907              0.36   2350.31      0  02:25       1.499     0.000
  YS02001915              0.01      1.64      0  02:24       0.000     0.000
  YS02001918              0.01    110.50      0  02:17       0.001     0.000
  YS02001920              0.01     28.66      0  02:17       0.000     0.000
  YS02001923              0.01     49.24      0  02:17       0.000     0.000
  YS02001926              0.01     46.48      0  02:17       0.000     0.000
  YS02001929              0.01    187.01      0  02:17       0.000     0.000
  YS02006558              0.01      0.35      0  02:24       0.000     0.000
  YS02163601              0.01      0.41      0  02:24       0.000     0.000
  
  
  **********************
  Storage Volume Summary
  **********************
  
  ------------------------------------------------------------------------------------------------
                         Average    Avg   Evap  Exfil     Maximum    Max    Time of Max    Maximum
                          Volume   Pcnt   Pcnt   Pcnt      Volume   Pcnt     Occurrence    Outflow
  Storage Unit           1000 m³   Full   Loss   Loss     1000 m³   Full    days hr:min        LPS
  ------------------------------------------------------------------------------------------------
  CC-storage               2.617   40.8    0.0    0.0       5.094   79.5       0  02:46    1783.53
  JK-storage               0.162   55.7    0.0    0.0       0.213   73.1       0  02:25    2300.00
  
  
  ***********************
  Outfall Loading Summary
  ***********************
  
  -----------------------------------------------------------
                         Flow       Avg       Max       Total
                         Freq      Flow      Flow      Volume
  Outfall Node           Pcnt       LPS       LPS    10^6 ltr
  -----------------------------------------------------------
  CC-1                  16.20    683.00    683.00       3.644
  CC-2                  12.39    683.00    683.00       2.726
  JK-1                   9.69   1000.00   1000.00       2.691
  JK-2                   0.12   1000.00   1000.00       0.048
  WSC                   99.97    224.25    551.40       5.724
  -----------------------------------------------------------
  System                27.67   3590.25   3366.23      14.833
  
  
  ********************
  Link Flow Summary
  ********************
  
  -----------------------------------------------------------------------------
                                 Maximum  Time of Max   Maximum    Max/    Max/
                                  |Flow|   Occurrence   |Veloc|    Full    Full
  Link                 Type          LPS  days hr:min     m/sec    Flow   Depth
  -----------------------------------------------------------------------------
  1                    CONDUIT    551.40     0  02:35      2.82    0.19    0.30
  WS02003060WS02003069 CONDUIT    549.81     0  02:33      1.64    0.22    0.34
  WS02003066WSF200     CONDUIT    533.31     0  02:33      2.85    0.09    0.22
  WS02003067WS02003066 CONDUIT    533.28     0  02:33      1.20    0.17    0.41
  WS02003069WS02003072 CONDUIT    549.73     0  02:34      1.37    0.26    0.39
  WS02003072WS02003073 CONDUIT    549.73     0  02:34      1.43    1.19    0.37
  WS02004401WS02004402 CONDUIT    537.09     0  02:37      1.04    0.64    0.86
  WS02004402WS02004403 CONDUIT    537.19     0  02:37      1.05    0.77    0.88
  WS02004403WS02004404 CONDUIT    535.87     0  02:31      1.05    0.39    0.93
  WS02004404WS02004405 CONDUIT    535.78     0  02:31      1.19    5.25    0.96
  WS02004405WS02004406 CONDUIT    536.08     0  02:38      1.18    1.06    0.95
  WS02004406WS02004407 CONDUIT    535.44     0  02:31      1.04    0.24    0.63
  WS02004407WS02004409 CONDUIT    535.19     0  02:31      1.50    0.19    0.48
  WS02004409WS02004410 CONDUIT    534.22     0  02:31      0.98    0.69    0.67
  WS02004410WS02004411 CONDUIT    533.95     0  02:32      0.94    0.73    0.68
  WS02004411WS02004412 CONDUIT    533.50     0  02:32      0.93    0.76    0.69
  WS02004412WS02004413 CONDUIT    533.39     0  02:32      0.97    0.36    0.78
  WS02004413WS02003067 CONDUIT    533.22     0  02:32      1.11    0.23    0.59
  WS02006109WS02006110 CONDUIT    556.75     0  02:46      1.11    1.07    1.00
  WS02006110WS02006113 CONDUIT    568.00     0  02:47      1.37    0.52    0.78
  WS02006111WS02006112 CONDUIT    542.17     0  02:54      1.85    0.26    0.67
  WS02006112WS02006115 CONDUIT    551.00     0  02:16      0.80    0.33    0.87
  WS02006113WS02006111 CONDUIT    560.80     0  03:54      2.47    0.67    0.46
  WS02006115WS02006116 CONDUIT    539.03     0  02:54      1.11    0.69    0.76
  WS02006116WS02004401 CONDUIT    538.39     0  02:37      1.06    0.74    0.84
  WS02006228WS02006109 CONDUIT    554.85     0  02:46      1.10    2.42    1.00
  WS02006229WS02006228 CONDUIT    555.36     0  02:46      1.11    1.84    1.00
  WS02006230WS02006229 CONDUIT    555.55     0  02:46      1.44   12.36    1.00
  WS02006231WS02006230 CONDUIT    582.51     0  02:35      1.58    8.84    1.00
  WS02006232WS02006231 CONDUIT    588.34     0  02:46      1.53    1.23    1.00
  WS02006234WS02006232 CONDUIT    586.89     0  02:46      1.52    1.19    1.00
  WS02006235WS02006234 CONDUIT    579.39     0  02:46      1.51    6.11    1.00
  WS02006238WS02006235 CONDUIT    425.44     0  03:05      1.46    0.95    1.00
  WS02006239WS02006238 CONDUIT    425.62     0  03:05      1.11    1.36    1.00
  WS02006240WS02006239 CONDUIT    422.77     0  03:05      1.24    1.33    1.00
  WS02006242WS02006240 CONDUIT    423.59     0  03:30      1.13    1.68    1.00
  WS02006243WS02006242 CONDUIT    424.39     0  03:30      1.40    0.91    1.00
  WS02006245WS02006243 CONDUIT    425.68     0  03:30      1.45    1.26    1.00
  WS02006247WS02006245 CONDUIT    427.82     0  03:30      1.43    3.39    1.00
  WS02006248WS02006247 CONDUIT    427.56     0  03:30      1.44    0.93    1.00
  WS02006249WS02006248 CONDUIT    426.79     0  03:30      1.36    2.34    1.00
  WS02006251WS02006249 CONDUIT    459.02     0  00:00      1.99    1.32    1.00
  WS02006252WS02006251 CONDUIT    407.53     0  03:30      3.87    1.50    1.00
  WS02006256WS02006235 CONDUIT    288.91     0  00:00      4.23    3.06    1.00
  WSF200WS02003060     CONDUIT    533.57     0  02:35      2.06    0.12    0.28
  YS02001580YS02001583 CONDUIT     73.37     0  02:10      0.52    0.28    1.00
  YS02001583YS02001586 CONDUIT    123.67     0  02:10      0.51    0.19    1.00
  YS02001586YS02001590 CONDUIT    317.97     0  02:29      1.24    0.56    1.00
  YS02001590YS02001593 CONDUIT    318.58     0  02:24      1.13    2.00    1.00
  YS02001593YS02001596 CONDUIT    317.96     0  02:34      1.73    0.50    1.00
  YS02001596YS02001600 CONDUIT    318.07     0  02:29      1.27    0.62    1.00
  YS02001600YS02001601 CONDUIT    318.01     0  02:34      1.12    0.55    1.00
  YS02001601YS02001602 CONDUIT    493.43     0  02:10      1.75    1.78    1.00
  YS02001602YS02001605 CONDUIT    492.98     0  02:10      1.74   10.43    1.00
  YS02001605YS02001607 CONDUIT    492.74     0  02:10      1.74    2.70    1.00
  YS02001607YS02001610 CONDUIT    492.97     0  02:09      0.63    0.47    1.00
  YS02001610YS02001613 CONDUIT    552.27     0  02:26      0.70    0.64    1.00
  YS02001613YS02001616 CONDUIT    552.78     0  02:26      0.70    0.47    1.00
  YS02001616YS02001619 CONDUIT    551.39     0  02:26      0.70    0.96    1.00
  YS02001619YS02001622 CONDUIT   1033.39     0  02:25      1.32    1.52    1.00
  YS02001622YS02001625 CONDUIT   1033.57     0  02:25      1.32    0.55    1.00
  YS02001625YS02001629 CONDUIT    893.66     0  02:12      1.14    0.42    1.00
  YS02001629YS02163301 CONDUIT    895.46     0  02:12      1.14    1.10    1.00
  YS02001633YS02163601 CONDUIT   1257.01     0  02:13      1.60    1.32    1.00
  YS02001641YS02001644 CONDUIT   1253.61     0  02:13      1.60    4.05    1.00
  YS02001644YS02001647 CONDUIT   1586.80     0  02:14      2.06    0.93    1.00
  YS02001647YS02001649 CONDUIT   1592.87     0  02:13      2.20    0.84    1.00
  YS02001649YS02001757 CONDUIT   1760.98     0  02:15      2.24    1.07    1.00
  YS02001652YS02001649 CONDUIT   1052.16     0  02:25      1.34    0.52    1.00
  YS02001655YS02001652 CONDUIT   1051.84     0  02:25      1.34    0.51    1.00
  YS02001658YS02001655 CONDUIT   1052.23     0  02:25      1.80    0.45    1.00
  YS02001661YS02001658 CONDUIT   1052.14     0  02:25      2.13    0.41    1.00
  YS02001664YS02001661 CONDUIT   1052.36     0  02:25      2.03    0.33    0.85
  YS02001745YS02001748 CONDUIT    656.49     0  02:25      1.97    0.25    0.97
  YS02001748YS02001751 CONDUIT    657.02     0  02:25      1.57    0.33    1.00
  YS02001751YS02001754 CONDUIT    656.94     0  02:25      1.40    0.32    1.00
  YS02001754YS02001757 CONDUIT    657.87     0  02:25      0.84    0.26    1.00
  YS02001757CaochengTiaoxuchi CONDUIT   3018.82     0  02:24      3.84    1.31    1.00
  YS02001759YS02001757 CONDUIT   1303.69     0  02:25      1.66    0.93    1.00
  YS02001762YS02001759 CONDUIT    675.54     0  02:19      0.86    0.78    1.00
  YS02001765YS02001762 CONDUIT    674.71     0  02:19      0.86    0.63    1.00
  YS02001767YS02001765 CONDUIT    674.61     0  02:19      0.86    0.85    1.00
  YS02001770YS02001767 CONDUIT    674.48     0  02:19      0.86    2.67    1.00
  YS02001774YS02001770 CONDUIT    838.35     0  02:25      1.07    0.54    1.00
  YS02001779YS02001774 CONDUIT    838.31     0  02:25      1.07    0.42    1.00
  YS02001783YS02001784 CONDUIT   1182.15     0  02:24      2.35    1.63    1.00
  YS02001784YS02001785 CONDUIT   1184.29     0  02:24      2.36    2.76    1.00
  YS02001786YS02001788 CONDUIT   1185.32     0  02:24      2.52    2.28    0.89
  YS02001788YS02001790 CONDUIT   1176.81     0  02:25      2.72    0.87    0.84
  YS02001790YS02001791 CONDUIT   1296.59     0  02:22      3.44    1.41    0.71
  YS02001791YS02001793 CONDUIT   1246.41     0  02:25      6.65    0.54    0.44
  YS02001793JiankangQianchi CONDUIT   1235.30     0  02:19      2.44    0.10    0.65
  YS02001882YS02001884 CONDUIT     31.67     0  02:13      0.12    0.04    1.00
  YS02001884YS02001887 CONDUIT     43.80     0  02:12      0.09    0.06    1.00
  YS02001887YS02001890 CONDUIT    973.21     0  02:25      1.24    1.67    1.00
  YS02001890YS02001895 CONDUIT    523.17     0  02:24      0.67    0.24    1.00
  YS02001895YS02001898 CONDUIT    518.67     0  02:24      0.66    0.90    1.00
  YS02001898YS02001901 CONDUIT    517.50     0  02:29      0.66    0.33    1.00
  YS02001901YS02001904 CONDUIT    517.90     0  02:27      0.66    0.80    1.00
  YS02001904YS02001907 CONDUIT    518.75     0  02:29      0.66    0.18    1.00
  YS02001907YS02006553 CONDUIT    809.65     0  02:39      0.90    0.95    1.00
  YS02001910YS02001907 CONDUIT   1689.13     0  02:25      2.15    0.95    1.00
  YS02001915YS02001910 CONDUIT   1688.82     0  02:25      2.15    0.84    1.00
  YS02001918YS02001915 CONDUIT    562.42     0  02:25      0.72    0.31    1.00
  YS02001920YS02001918 CONDUIT    562.68     0  02:25      0.72    0.54    1.00
  YS02001923YS02001920 CONDUIT    559.16     0  02:25      0.71    0.25    1.00
  YS02001926YS02001923 CONDUIT    558.97     0  02:25      0.94    0.80    1.00
  YS02001929YS02001926 CONDUIT    558.91     0  02:25      1.08    0.27    1.00
  YS02006553YS02006556 CONDUIT    809.33     0  02:38      1.03    0.69    1.00
  YS02006556YS02006558 CONDUIT    810.45     0  02:39      1.03    0.64    1.00
  YS02006558YS02006561 CONDUIT   1178.66     0  02:24      4.17    2.61    1.00
  YS02006561YS02001783 CONDUIT   1184.27     0  02:24      2.36    0.61    1.00
  YS02163301YS02001633 CONDUIT    895.40     0  02:12      1.14    0.84    1.00
  YS02163601YS02164001 CONDUIT   1255.54     0  02:13      1.60    1.11    1.00
  YS02164001YS02001641 CONDUIT   1254.28     0  02:13      1.60    1.71    1.00
  CC-R1                PUMP       683.00     0  00:00              1.00
  CC-R2                PUMP       683.00     0  00:00              1.00
  CC-S1                PUMP       200.00     0  00:00              1.00
  CC-S2                PUMP       200.00     0  00:00              1.00
  JK-R1                PUMP      1000.00     0  00:00              1.00
  JK-R2                PUMP      1000.00     0  00:00              1.00
  JK-S                 PUMP       300.00     0  00:00              1.00
  
  
  ***************************
  Flow Classification Summary
  ***************************
  
  -------------------------------------------------------------------------------------
                      Adjusted    ---------- Fraction of Time in Flow Class ---------- 
                       /Actual         Up    Down  Sub   Sup   Up    Down  Norm  Inlet 
  Conduit               Length    Dry  Dry   Dry   Crit  Crit  Crit  Crit  Ltd   Ctrl  
  -------------------------------------------------------------------------------------
  1                       1.00   0.00  0.00  0.00  0.00  1.00  0.00  0.00  0.40  0.00
  WS02003060WS02003069    1.00   0.00  0.00  0.00  0.97  0.03  0.00  0.00  0.67  0.00
  WS02003066WSF200        1.00   0.06  0.00  0.00  0.00  0.94  0.00  0.00  0.83  0.00
  WS02003067WS02003066    1.00   0.05  0.00  0.00  0.94  0.00  0.00  0.00  0.00  0.00
  WS02003069WS02003072    1.00   0.00  0.00  0.00  0.99  0.01  0.00  0.00  0.72  0.00
  WS02003072WS02003073    1.00   0.00  0.00  0.00  0.00  0.00  0.00  1.00  0.00  0.00
  WS02004401WS02004402    1.00   0.02  0.00  0.00  0.98  0.00  0.00  0.00  0.00  0.00
  WS02004402WS02004403    1.00   0.02  0.00  0.00  0.97  0.00  0.00  0.00  0.00  0.00
  WS02004403WS02004404    1.00   0.00  0.03  0.00  0.97  0.00  0.00  0.00  0.00  0.00
  WS02004404WS02004405    1.00   0.00  0.00  0.00  1.00  0.00  0.00  0.00  0.01  0.00
  WS02004405WS02004406    1.00   0.00  0.00  0.00  1.00  0.00  0.00  0.00  0.00  0.00
  WS02004406WS02004407    1.00   0.00  0.04  0.00  0.96  0.00  0.00  0.00  0.00  0.00
  WS02004407WS02004409    1.00   0.04  0.00  0.00  0.95  0.01  0.00  0.00  0.95  0.00
  WS02004409WS02004410    1.00   0.04  0.00  0.00  0.96  0.00  0.00  0.00  0.00  0.00
  WS02004410WS02004411    1.00   0.04  0.00  0.00  0.96  0.00  0.00  0.00  0.00  0.00
  WS02004411WS02004412    1.00   0.04  0.00  0.00  0.96  0.00  0.00  0.00  0.00  0.00
  WS02004412WS02004413    1.00   0.04  0.00  0.00  0.95  0.00  0.00  0.00  0.00  0.00
  WS02004413WS02003067    1.00   0.04  0.01  0.00  0.00  0.00  0.95  0.00  0.00  0.00
  WS02006109WS02006110    1.00   0.00  0.01  0.00  0.98  0.00  0.01  0.00  0.00  0.00
  WS02006110WS02006113    1.00   0.01  0.01  0.00  0.98  0.00  0.00  0.00  0.00  0.00
  WS02006111WS02006112    1.00   0.02  0.00  0.00  0.98  0.00  0.00  0.00  0.98  0.00
  WS02006112WS02006115    1.00   0.02  0.00  0.00  0.97  0.00  0.00  0.00  0.00  0.00
  WS02006113WS02006111    1.00   0.02  0.00  0.00  0.00  0.98  0.00  0.00  0.16  0.00
  WS02006115WS02006116    1.00   0.02  0.00  0.00  0.97  0.00  0.00  0.01  0.00  0.00
  WS02006116WS02004401    1.00   0.02  0.00  0.00  0.98  0.00  0.00  0.00  0.00  0.00
  WS02006228WS02006109    1.00   0.00  0.00  0.00  1.00  0.00  0.00  0.00  0.00  0.00
  WS02006229WS02006228    1.00   0.00  0.00  0.00  0.99  0.00  0.00  0.01  0.00  0.00
  WS02006230WS02006229    1.00   0.00  0.00  0.00  0.99  0.00  0.00  0.01  0.00  0.00
  WS02006231WS02006230    1.00   0.00  0.00  0.00  0.26  0.00  0.73  0.00  0.00  0.00
  WS02006232WS02006231    1.00   0.00  0.00  0.00  0.98  0.00  0.01  0.00  0.00  0.00
  WS02006234WS02006232    1.00   0.00  0.00  0.00  1.00  0.00  0.00  0.00  0.09  0.00
  WS02006235WS02006234    1.00   0.00  0.00  0.00  0.87  0.00  0.13  0.00  0.00  0.00
  WS02006238WS02006235    1.00   0.00  0.00  0.00  1.00  0.00  0.00  0.00  0.00  0.00
  WS02006239WS02006238    1.00   0.00  0.00  0.00  1.00  0.00  0.00  0.00  0.21  0.00
  WS02006240WS02006239    1.00   0.00  0.00  0.00  0.71  0.00  0.00  0.29  0.04  0.00
  WS02006242WS02006240    1.00   0.00  0.00  0.00  0.98  0.00  0.01  0.00  0.00  0.00
  WS02006243WS02006242    1.00   0.00  0.00  0.00  0.98  0.00  0.00  0.01  0.45  0.00
  WS02006245WS02006243    1.00   0.00  0.00  0.00  0.79  0.00  0.00  0.21  0.02  0.00
  WS02006247WS02006245    1.00   0.00  0.00  0.00  0.98  0.00  0.00  0.02  0.00  0.00
  WS02006248WS02006247    1.00   0.00  0.00  0.00  0.99  0.00  0.00  0.01  0.31  0.00
  WS02006249WS02006248    1.00   0.00  0.00  0.00  0.55  0.00  0.45  0.00  0.00  0.00
  WS02006251WS02006249    1.00   0.00  0.00  0.00  0.99  0.01  0.00  0.00  0.47  0.00
  WS02006252WS02006251    1.00   0.00  0.50  0.00  0.12  0.00  0.37  0.00  0.00  0.00
  WS02006256WS02006235    1.00   0.00  0.00  0.00  1.00  0.00  0.00  0.00  0.00  0.00
  WSF200WS02003060        1.00   0.00  0.06  0.00  0.22  0.72  0.00  0.00  0.54  0.00
  YS02001580YS02001583    1.00   0.27  0.54  0.00  0.20  0.00  0.00  0.00  0.63  0.00
  YS02001583YS02001586    1.00   0.41  0.34  0.00  0.25  0.00  0.00  0.00  0.63  0.00
  YS02001586YS02001590    1.00   0.13  0.00  0.00  0.45  0.04  0.00  0.38  0.38  0.00
  YS02001590YS02001593    1.00   0.13  0.01  0.00  0.12  0.00  0.74  0.00  0.00  0.00
  YS02001593YS02001596    1.00   0.13  0.00  0.00  0.14  0.01  0.00  0.72  0.02  0.00
  YS02001596YS02001600    1.00   0.14  0.00  0.00  0.21  0.01  0.00  0.65  0.05  0.00
  YS02001600YS02001601    1.00   0.13  0.01  0.00  0.86  0.00  0.00  0.00  0.59  0.00
  YS02001601YS02001602    1.00   0.13  0.01  0.00  0.87  0.00  0.00  0.00  0.00  0.00
  YS02001602YS02001605    1.00   0.13  0.00  0.00  0.86  0.00  0.00  0.00  0.00  0.00
  YS02001605YS02001607    1.00   0.14  0.00  0.00  0.86  0.00  0.00  0.00  0.00  0.00
  YS02001607YS02001610    1.00   0.13  0.01  0.00  0.86  0.00  0.00  0.00  0.01  0.00
  YS02001610YS02001613    1.00   0.13  0.00  0.00  0.87  0.00  0.00  0.00  0.00  0.00
  YS02001613YS02001616    1.00   0.13  0.00  0.00  0.87  0.00  0.00  0.00  0.00  0.00
  YS02001616YS02001619    1.00   0.13  0.00  0.00  0.87  0.00  0.00  0.00  0.00  0.00
  YS02001619YS02001622    1.00   0.13  0.00  0.00  0.87  0.00  0.00  0.00  0.27  0.00
  YS02001622YS02001625    1.00   0.13  0.00  0.00  0.87  0.00  0.00  0.00  0.04  0.00
  YS02001625YS02001629    1.00   0.13  0.05  0.00  0.17  0.00  0.65  0.00  0.00  0.00
  YS02001629YS02163301    1.00   0.15  0.01  0.00  0.84  0.00  0.00  0.00  0.00  0.00
  YS02001633YS02163601    1.00   0.00  0.01  0.00  0.99  0.00  0.00  0.00  0.15  0.00
  YS02001641YS02001644    1.00   0.00  0.01  0.00  0.99  0.00  0.00  0.00  0.00  0.00
  YS02001644YS02001647    1.00   0.00  0.17  0.00  0.83  0.00  0.00  0.00  0.00  0.00
  YS02001647YS02001649    1.00   0.00  0.17  0.00  0.54  0.29  0.00  0.00  0.56  0.00
  YS02001649YS02001757    1.00   0.00  0.00  0.00  0.85  0.15  0.00  0.00  0.41  0.00
  YS02001652YS02001649    1.00   0.00  0.00  0.00  0.96  0.03  0.00  0.00  0.73  0.00
  YS02001655YS02001652    1.00   0.00  0.00  0.00  0.20  0.01  0.00  0.78  0.06  0.00
  YS02001658YS02001655    1.00   0.00  0.14  0.00  0.67  0.19  0.00  0.00  0.68  0.00
  YS02001661YS02001658    1.00   0.14  0.00  0.00  0.51  0.35  0.00  0.00  0.69  0.00
  YS02001664YS02001661    1.00   0.13  0.00  0.00  0.79  0.09  0.00  0.00  0.85  0.00
  YS02001745YS02001748    1.00   0.00  0.00  0.00  0.11  0.00  0.00  0.88  0.04  0.00
  YS02001748YS02001751    1.00   0.00  0.00  0.00  0.83  0.17  0.00  0.00  0.73  0.00
  YS02001751YS02001754    1.00   0.00  0.00  0.00  0.18  0.00  0.00  0.82  0.04  0.00
  YS02001754YS02001757    1.00   0.00  0.00  0.00  1.00  0.00  0.00  0.00  0.80  0.00
  YS02001757CaochengTiaoxuchi    1.00   0.00  0.00  0.00  1.00  0.00  0.00  0.00  0.64  0.00
  YS02001759YS02001757    1.00   0.00  0.00  0.00  1.00  0.00  0.00  0.00  0.49  0.00
  YS02001762YS02001759    1.00   0.00  0.00  0.00  1.00  0.00  0.00  0.00  0.06  0.00
  YS02001765YS02001762    1.00   0.00  0.00  0.00  1.00  0.00  0.00  0.00  0.64  0.00
  YS02001767YS02001765    1.00   0.00  0.00  0.00  1.00  0.00  0.00  0.00  0.01  0.00
  YS02001770YS02001767    1.00   0.00  0.00  0.00  1.00  0.00  0.00  0.00  0.00  0.00
  YS02001774YS02001770    1.00   0.00  0.13  0.00  0.71  0.00  0.16  0.00  0.03  0.00
  YS02001779YS02001774    1.00   0.00  0.00  0.00  1.00  0.00  0.00  0.00  0.74  0.00
  YS02001783YS02001784    1.00   0.00  0.18  0.00  0.82  0.00  0.00  0.00  0.55  0.00
  YS02001784YS02001785    1.00   0.00  0.00  0.00  1.00  0.00  0.00  0.00  0.17  0.00
  YS02001786YS02001788    1.00   0.00  0.00  0.00  0.79  0.21  0.00  0.00  0.00  0.00
  YS02001788YS02001790    1.00   0.00  0.00  0.00  0.21  0.79  0.00  0.00  0.80  0.00
  YS02001790YS02001791    1.00   0.00  0.00  0.00  0.01  0.99  0.00  0.00  0.16  0.00
  YS02001791YS02001793    1.00   0.00  0.00  0.00  0.00  1.00  0.00  0.00  0.01  0.00
  YS02001793JiankangQianchi    1.00   0.00  0.00  0.00  0.99  0.01  0.00  0.00  0.94  0.00
  YS02001882YS02001884    1.00   0.15  0.01  0.00  0.84  0.00  0.00  0.00  0.00  0.00
  YS02001884YS02001887    1.00   0.06  0.05  0.00  0.89  0.00  0.00  0.00  0.00  0.00
  YS02001887YS02001890    1.00   0.00  0.00  0.00  0.97  0.00  0.03  0.00  0.00  0.00
  YS02001890YS02001895    1.00   0.00  0.16  0.00  0.84  0.00  0.00  0.00  0.00  0.00
  YS02001895YS02001898    1.00   0.16  0.00  0.00  0.82  0.00  0.02  0.00  0.00  0.00
  YS02001898YS02001901    1.00   0.17  0.00  0.00  0.83  0.00  0.00  0.00  0.01  0.00
  YS02001901YS02001904    1.00   0.17  0.00  0.00  0.83  0.00  0.00  0.00  0.00  0.00
  YS02001904YS02001907    1.00   0.00  0.16  0.00  0.83  0.00  0.00  0.00  0.00  0.00
  YS02001907YS02006553    1.00   0.00  0.02  0.00  0.98  0.00  0.00  0.00  0.00  0.00
  YS02001910YS02001907    1.00   0.00  0.00  0.00  0.97  0.00  0.00  0.03  0.12  0.00
  YS02001915YS02001910    1.00   0.00  0.00  0.00  0.97  0.03  0.00  0.00  0.16  0.00
  YS02001918YS02001915    1.00   0.00  0.01  0.00  0.98  0.02  0.00  0.00  0.74  0.00
  YS02001920YS02001918    1.00   0.00  0.01  0.00  0.99  0.00  0.00  0.00  0.00  0.00
  YS02001923YS02001920    1.00   0.00  0.00  0.00  1.00  0.00  0.00  0.00  0.92  0.00
  YS02001926YS02001923    1.00   0.00  0.07  0.00  0.06  0.00  0.86  0.00  0.00  0.00
  YS02001929YS02001926    1.00   0.00  0.13  0.00  0.87  0.00  0.00  0.00  0.82  0.00
  YS02006553YS02006556    1.00   0.01  0.00  0.00  0.99  0.00  0.00  0.00  0.03  0.00
  YS02006556YS02006558    1.00   0.00  0.00  0.00  1.00  0.00  0.00  0.00  0.00  0.00
  YS02006558YS02006561    1.00   0.18  0.00  0.00  0.06  0.76  0.00  0.00  0.18  0.00
  YS02006561YS02001783    1.00   0.18  0.00  0.00  0.09  0.73  0.00  0.00  0.68  0.00
  YS02163301YS02001633    1.00   0.00  0.15  0.00  0.85  0.00  0.00  0.00  0.00  0.00
  YS02163601YS02164001    1.00   0.00  0.08  0.00  0.92  0.00  0.00  0.00  0.00  0.00
  YS02164001YS02001641    1.00   0.01  0.07  0.00  0.92  0.00  0.00  0.00  0.05  0.00
  
  
  *************************
  Conduit Surcharge Summary
  *************************
  
  ----------------------------------------------------------------------------
                                                           Hours        Hours 
                         --------- Hours Full --------   Above Full   Capacity
  Conduit                Both Ends  Upstream  Dnstream   Normal Flow   Limited
  ----------------------------------------------------------------------------
  WS02003072WS02003073        0.01      0.01      0.01      1.31         0.01
  WS02004404WS02004405        0.01      0.01      0.01      3.87         0.01
  WS02004405WS02004406        0.01      0.01      0.01      0.70         0.01
  WS02006109WS02006110        0.66      0.66      2.02      0.83         0.01
  WS02006110WS02006113        0.01      0.01      2.01      0.01         0.01
  WS02006111WS02006112        0.01      0.01      2.15      0.01         0.01
  WS02006112WS02006115        0.01      0.01      0.80      0.01         0.01
  WS02006228WS02006109        2.00      2.02      2.00      2.51         2.00
  WS02006229WS02006228        1.99      2.00      1.99      2.19         1.98
  WS02006230WS02006229        2.06      2.15      2.06      4.79         2.06
  WS02006231WS02006230        0.67      0.67      0.95      4.30         0.01
  WS02006232WS02006231        0.87      0.87      2.02      0.96         0.01
  WS02006234WS02006232        1.92      1.92      2.02      0.93         0.92
  WS02006235WS02006234        1.27      1.29      1.93      4.04         0.03
  WS02006238WS02006235        1.95      1.95      2.02      0.01         0.01
  WS02006239WS02006238        1.99      2.01      1.99      2.02         1.75
  WS02006240WS02006239        1.96      2.00      1.97      2.02         1.64
  WS02006242WS02006240        1.99      1.99      2.01      2.14         0.01
  WS02006243WS02006242        1.99      1.99      2.01      0.01         0.07
  WS02006245WS02006243        1.98      1.98      1.98      1.31         1.29
  WS02006247WS02006245        1.98      1.98      1.98      3.87         1.96
  WS02006248WS02006247        1.98      1.98      1.98      0.01         0.08
  WS02006249WS02006248        1.97      1.97      1.97      3.80         0.01
  WS02006251WS02006249        1.97      1.97      1.97      2.07         1.87
  WS02006252WS02006251        2.11      2.11      2.12      2.12         0.01
  WS02006256WS02006235        4.10      4.15      6.24      1.27         0.01
  YS02001580YS02001583        0.64      0.64      0.69      0.01         0.01
  YS02001583YS02001586        0.65      0.65      0.77      0.01         0.01
  YS02001586YS02001590        0.78      0.78      0.85      0.01         0.01
  YS02001590YS02001593        0.85      0.85      0.87      0.87         0.01
  YS02001593YS02001596        0.87      0.87      0.97      0.01         0.01
  YS02001596YS02001600        1.02      1.02      1.12      0.01         0.01
  YS02001600YS02001601        1.17      1.17      1.46      0.01         0.01
  YS02001601YS02001602        1.35      1.35      1.50      1.12         0.01
  YS02001602YS02001605        1.30      1.30      1.35      2.39         0.01
  YS02001605YS02001607        1.25      1.30      1.26      1.40         1.24
  YS02001607YS02001610        0.85      0.85      0.87      0.01         0.01
  YS02001610YS02001613        0.84      0.84      0.87      0.01         0.01
  YS02001613YS02001616        0.80      0.80      0.84      0.01         0.01
  YS02001616YS02001619        0.79      0.79      0.80      0.01         0.05
  YS02001619YS02001622        0.78      0.79      0.78      0.83         0.73
  YS02001622YS02001625        0.78      0.78      0.96      0.01         0.01
  YS02001625YS02001629        0.74      0.74      0.96      0.01         0.01
  YS02001629YS02163301        0.96      0.96      0.97      0.07         0.12
  YS02001633YS02163601        0.99      0.99      1.03      0.25         0.25
  YS02001641YS02001644        0.91      0.94      0.91      1.56         0.89
  YS02001644YS02001647        0.72      0.72      0.91      0.01         0.01
  YS02001647YS02001649        0.72      0.72      0.84      0.01         0.01
  YS02001649YS02001757        0.84      0.84      0.91      0.04         0.04
  YS02001652YS02001649        0.68      0.68      0.84      0.01         0.01
  YS02001655YS02001652        0.51      0.51      0.66      0.01         0.01
  YS02001658YS02001655        0.30      0.30      0.51      0.01         0.01
  YS02001661YS02001658        0.08      0.08      0.30      0.01         0.01
  YS02001664YS02001661        0.01      0.01      0.13      0.01         0.01
  YS02001745YS02001748        0.01      0.01      0.23      0.01         0.01
  YS02001748YS02001751        0.27      0.27      0.40      0.01         0.01
  YS02001751YS02001754        0.40      0.40      0.59      0.01         0.01
  YS02001754YS02001757        0.62      0.62      0.91      0.01         0.01
  YS02001757CaochengTiaoxuchi        0.91      0.91      2.01      0.35         0.35
  YS02001759YS02001757        0.83      0.83      0.91      0.01         0.01
  YS02001762YS02001759        0.80      0.80      0.83      0.01         0.02
  YS02001765YS02001762        0.76      0.76      0.80      0.01         0.01
  YS02001767YS02001765        0.73      0.73      0.76      0.01         0.01
  YS02001770YS02001767        0.72      0.73      0.73      0.47         0.46
  YS02001774YS02001770        0.70      0.70      0.79      0.01         0.01
  YS02001779YS02001774        0.58      0.58      0.79      0.01         0.01
  YS02001783YS02001784        0.53      0.55      0.53      0.72         0.53
  YS02001784YS02001785        0.42      0.53      0.42      0.98         0.42
  YS02001786YS02001788        0.01      0.42      0.01      0.85         0.01
  YS02001790YS02001791        0.01      0.01      0.01      0.52         0.01
  YS02001793JiankangQianchi        0.01      0.01      7.70      0.01         0.01
  YS02001882YS02001884        0.50      0.50      0.51      0.01         0.01
  YS02001884YS02001887        0.53      0.53      0.54      0.01         0.01
  YS02001887YS02001890        0.56      0.56      0.57      0.14         0.01
  YS02001890YS02001895        0.49      0.49      0.59      0.01         0.01
  YS02001895YS02001898        0.48      0.48      0.49      0.01         0.01
  YS02001898YS02001901        0.49      0.49      0.53      0.01         0.01
  YS02001901YS02001904        0.52      0.52      0.53      0.01         0.01
  YS02001904YS02001907        0.52      0.52      0.83      0.01         0.01
  YS02001907YS02006553        0.98      0.98      1.06      0.01         0.01
  YS02001910YS02001907        0.59      0.59      0.81      0.01         0.01
  YS02001915YS02001910        0.50      0.50      0.59      0.01         0.01
  YS02001918YS02001915        0.41      0.41      0.50      0.01         0.01
  YS02001920YS02001918        0.41      0.41      0.42      0.01         0.01
  YS02001923YS02001920        0.37      0.37      0.42      0.01         0.01
  YS02001926YS02001923        0.13      0.13      0.18      0.01         0.01
  YS02001929YS02001926        0.01      0.01      0.18      0.01         0.01
  YS02006553YS02006556        0.68      0.68      0.82      0.01         0.01
  YS02006556YS02006558        0.76      0.76      0.84      0.01         0.01
  YS02006558YS02006561        0.44      0.67      0.44      0.93         0.44
  YS02006561YS02001783        0.37      0.37      0.55      0.01         0.01
  YS02163301YS02001633        0.97      0.97      1.01      0.01         0.01
  YS02163601YS02164001        0.94      0.94      1.03      0.08         0.01
  YS02164001YS02001641        0.94      0.94      0.94      0.64         0.56
  
  
  ***************
  Pumping Summary
  ***************
  
  ---------------------------------------------------------------------------------------------------------
                                                  Min       Avg       Max     Total     Power    % Time Off
                        Percent   Number of      Flow      Flow      Flow    Volume     Usage    Pump Curve
  Pump                 Utilized   Start-Ups       LPS       LPS       LPS  10^6 ltr     Kw-hr    Low   High
  ---------------------------------------------------------------------------------------------------------
  CC-R1                   18.52           2      0.00    683.00    683.00     3.643     69.64    0.0    5.6
  CC-R2                   13.85           2      0.00    683.00    683.00     2.725     52.70    0.0    7.5
  CC-S1                   44.40           5      0.00    200.00    200.00     2.558     14.46    0.0    0.0
  CC-S2                   31.63           5      0.00    200.00    200.00     1.822     10.13    0.0    0.0
  JK-R1                    9.33          13      0.00   1000.00   1000.00     2.688     31.45    0.0    0.0
  JK-R2                    0.16           1      0.00   1000.00   1000.00     0.047      0.36    0.0    0.0
  JK-S                    15.83          20      0.00    300.00    300.00     1.368     18.36    0.0    0.0
  

  Analysis begun on:  Wed Apr 23 23:56:29 2025
  Analysis ended on:  Wed Apr 23 23:56:30 2025
  Total elapsed time: 00:00:01