
  EPA STORM WATER MANAGEMENT MODEL - VERSION 5.2 (Build 5.2.4)
  PYSWMM TOOLKIT API - VERSION v1.0 (2023-11-27)
  ------------------------------------------------------------

  WARNING 04: minimum elevation drop used for Conduit WS02004404WS02004405
  WARNING 03: negative offset ignored for Link YS02001904YS02001907
  
  ****************
  Analysis Options
  ****************
  Flow Units ............... LPS
  Process Models:
    Rainfall/Runoff ........ YES
    RDII ................... NO
    Snowmelt ............... NO
    Groundwater ............ NO
    Flow Routing ........... YES
    Ponding Allowed ........ NO
    Water Quality .......... NO
  Infiltration Method ...... HORTON
  Flow Routing Method ...... DYNWAVE
  Surcharge Method ......... EXTRAN
  Starting Date ............ 08/28/2015 08:00:00
  Ending Date .............. 08/28/2015 16:00:00
  Antecedent Dry Days ...... 8.0
  Report Time Step ......... 00:01:00
  Wet Time Step ............ 00:01:00
  Dry Time Step ............ 00:01:00
  Routing Time Step ........ 30.00 sec
  Variable Time Step ....... YES
  Maximum Trials ........... 8
  Number of Threads ........ 4
  Head Tolerance ........... 0.001500 m
  
  
  **************************        Volume         Depth
  Runoff Quantity Continuity     hectare-m            mm
  **************************     ---------       -------
  Total Precipitation ......         2.449        73.834
  Evaporation Loss .........         0.000         0.000
  Infiltration Loss ........         0.100         3.029
  Surface Runoff ...........         2.316        69.826
  Final Storage ............         0.033         0.995
  Continuity Error (%) .....        -0.022
  
  
  **************************        Volume        Volume
  Flow Routing Continuity        hectare-m      10^6 ltr
  **************************     ---------     ---------
  Dry Weather Inflow .......         0.025         0.251
  Wet Weather Inflow .......         2.316        23.162
  Groundwater Inflow .......         0.000         0.000
  RDII Inflow ..............         0.000         0.000
  External Inflow ..........         0.083         0.834
  External Outflow .........         1.597        15.971
  Flooding Loss ............         0.819         8.190
  Evaporation Loss .........         0.000         0.000
  Exfiltration Loss ........         0.000         0.000
  Initial Stored Volume ....         0.243         2.431
  Final Stored Volume ......         0.254         2.541
  Continuity Error (%) .....        -0.093
  
  
  *************************
  Highest Continuity Errors
  *************************
  Node YS02001583 (-6.80%)
  Node YS02001884 (5.16%)
  
  
  ***************************
  Time-Step Critical Elements
  ***************************
  Link WS02006252WS02006251 (49.54%)
  Link WS02006238WS02006235 (12.30%)
  Link WS02003066WSF200 (8.35%)
  Link YS02001791YS02001793 (7.04%)
  Link WS02004404WS02004405 (6.94%)
  
  
  ********************************
  Highest Flow Instability Indexes
  ********************************
  Link WS02006113WS02006111 (41)
  Link WS02006111WS02006112 (20)
  Link WS02006252WS02006251 (16)
  Link WS02006238WS02006235 (14)
  Link WS02006256WS02006235 (13)
  
  
  *********************************
  Most Frequent Nonconverging Nodes
  *********************************
  Node CC-1 (14.18%)
  Node CC-2 (14.18%)
  Node JK-1 (14.18%)
  Node JK-2 (14.18%)
  Node WSC (14.18%)
  
  
  *************************
  Routing Time Step Summary
  *************************
  Minimum Time Step           :     0.01 sec
  Average Time Step           :     1.80 sec
  Maximum Time Step           :     7.04 sec
  % of Time in Steady State   :     0.00
  Average Iterations per Step :     3.17
  % of Steps Not Converging   :    14.18
  Time Step Frequencies       :
     30.000 - 13.228 sec      :     0.00 %
     13.228 -  5.833 sec      :     3.39 %
      5.833 -  2.572 sec      :    22.09 %
      2.572 -  1.134 sec      :    19.47 %
      1.134 -  0.500 sec      :    55.05 %
  
  
  ***************************
  Subcatchment Runoff Summary
  ***************************
  
  ------------------------------------------------------------------------------------------------------------------------------
                            Total      Total      Total      Total     Imperv       Perv      Total       Total     Peak  Runoff
                           Precip      Runon       Evap      Infil     Runoff     Runoff     Runoff      Runoff   Runoff   Coeff
  Subcatchment                 mm         mm         mm         mm         mm         mm         mm    10^6 ltr      LPS
  ------------------------------------------------------------------------------------------------------------------------------
  sub60                     73.83       0.00       0.00       1.83      63.77       7.03      70.80        0.93   604.13   0.959
  sub61                     73.83       0.00       0.00       2.65      60.15       9.90      70.06        1.29   837.15   0.949
  sub62                     73.83       0.00       0.00       1.22      66.64       4.69      71.33        1.95  1174.87   0.966
  sub63                     73.83       0.00       0.00       4.88      51.45      16.54      68.00        1.54   928.67   0.921
  sub64                     73.83       0.00       0.00       2.47      61.55       8.61      70.17        1.69   956.55   0.950
  sub65                     73.83       0.00       0.00       2.14      62.98       7.47      70.45        1.94  1066.82   0.954
  sub66                     73.83       0.00       0.00       6.00      51.35      15.41      66.76        3.11  1391.01   0.904
  sub67                     73.83       0.00       0.00       1.18      66.69       4.73      71.42        1.33   907.99   0.967
  sub68                     73.83       0.00       0.00       2.20      62.31       8.14      70.46        1.94  1201.60   0.954
  sub69                     73.83       0.00       0.00       1.95      62.65       9.12      71.77        2.66  1420.86   0.972
  sub70                     73.83       0.00       0.00       6.48      48.57      18.63      67.19        1.94   782.64   0.910
  sub71                     73.83       0.00       0.00       1.25      66.60       4.66      71.26        1.86  1035.08   0.965
  sub72                     73.83       0.00       0.00       1.11      67.27       4.06      71.32        0.98   500.52   0.966
  
  
  ******************
  Node Depth Summary
  ******************
  
  ---------------------------------------------------------------------------------
                                 Average  Maximum  Maximum  Time of Max    Reported
                                   Depth    Depth      HGL   Occurrence   Max Depth
  Node                 Type       Meters   Meters   Meters  days hr:min      Meters
  ---------------------------------------------------------------------------------
  WS02003060           JUNCTION     0.23     0.38     5.31     0  02:11        0.38
  WS02003066           JUNCTION     0.19     0.30     5.85     0  02:18        0.30
  WS02003067           JUNCTION     0.49     0.70     6.02     0  02:10        0.70
  WS02003069           JUNCTION     0.25     0.43     5.01     0  02:19        0.43
  WS02003072           JUNCTION     0.32     0.50     4.87     0  02:18        0.50
  WS02003073           JUNCTION     0.18     0.30     4.36     0  02:20        0.30
  WS02004401           JUNCTION     0.57     0.85     6.85     0  02:05        0.85
  WS02004402           JUNCTION     0.60     0.88     6.84     0  02:06        0.88
  WS02004403           JUNCTION     0.63     0.89     6.82     0  02:06        0.89
  WS02004404           JUNCTION     0.70     0.96     6.81     0  02:06        0.96
  WS02004405           JUNCTION     0.70     0.95     6.80     0  02:06        0.95
  WS02004406           JUNCTION     0.71     0.96     6.79     0  02:06        0.95
  WS02004407           JUNCTION     0.17     0.30     6.61     0  02:06        0.29
  WS02004409           JUNCTION     0.37     0.66     6.43     0  02:17        0.66
  WS02004410           JUNCTION     0.40     0.68     6.40     0  02:12        0.68
  WS02004411           JUNCTION     0.42     0.69     6.37     0  02:12        0.69
  WS02004412           JUNCTION     0.45     0.70     6.34     0  02:17        0.70
  WS02004413           JUNCTION     0.61     0.85     6.32     0  02:17        0.85
  WS02006109           JUNCTION     0.63     1.25     7.87     0  02:48        1.03
  WS02006110           JUNCTION     0.63     1.18     7.77     0  02:38        0.98
  WS02006111           JUNCTION     0.17     0.29     6.99     0  03:08        0.29
  WS02006112           JUNCTION     0.72     1.08     6.97     0  02:22        1.05
  WS02006113           JUNCTION     0.25     0.46     7.35     0  03:06        0.46
  WS02006115           JUNCTION     0.45     0.75     6.89     0  02:05        0.75
  WS02006116           JUNCTION     0.54     0.83     6.87     0  02:05        0.83
  WS02006228           JUNCTION     0.62     1.51     8.16     0  02:38        1.07
  WS02006229           JUNCTION     0.59     1.59     8.29     0  02:38        1.08
  WS02006230           JUNCTION     0.58     1.98     8.72     0  02:38        1.19
  WS02006231           JUNCTION     0.40     1.53     8.65     0  02:38        0.95
  WS02006232           JUNCTION     0.53     1.62     8.66     0  02:38        1.22
  WS02006234           JUNCTION     0.46     1.53     8.68     0  02:38        1.38
  WS02006235           JUNCTION     0.50     1.65     8.82     0  03:53        1.65
  WS02006238           JUNCTION     0.53     1.71     8.86     0  03:53        1.71
  WS02006239           JUNCTION     0.50     1.66     8.86     0  03:53        1.66
  WS02006240           JUNCTION     0.47     1.55     8.84     0  03:53        1.55
  WS02006242           JUNCTION     0.54     1.55     8.82     0  03:06        1.55
  WS02006243           JUNCTION     0.45     1.42     8.84     0  03:06        1.42
  WS02006245           JUNCTION     0.46     1.32     8.81     0  03:06        1.32
  WS02006247           JUNCTION     0.49     1.27     8.77     0  03:06        1.27
  WS02006248           JUNCTION     0.45     1.10     8.69     0  01:50        1.10
  WS02006249           JUNCTION     0.48     1.09     8.69     0  01:49        1.09
  WS02006251           JUNCTION     0.48     1.82     9.49     0  02:37        1.23
  WS02006252           JUNCTION     0.36     1.50     9.74     0  00:00        0.78
  WS02006256           JUNCTION     0.95     2.35     9.28     0  00:00        2.35
  WSF200               JUNCTION     0.16     0.29     5.52     0  02:15        0.29
  YS02001580           JUNCTION     0.09     1.05     9.59     0  01:43        0.77
  YS02001583           JUNCTION     0.13     1.14     9.64     0  01:43        0.83
  YS02001586           JUNCTION     0.19     1.13     9.30     0  01:43        1.13
  YS02001590           JUNCTION     0.28     1.40     9.26     0  01:41        1.37
  YS02001593           JUNCTION     0.22     1.40     9.27     0  01:41        1.28
  YS02001596           JUNCTION     0.30     1.69     9.11     0  01:43        1.67
  YS02001600           JUNCTION     0.35     1.87     9.00     0  01:43        1.87
  YS02001601           JUNCTION     0.53     2.06     8.90     0  01:40        2.06
  YS02001602           JUNCTION     0.44     1.87     8.77     0  01:43        1.87
  YS02001605           JUNCTION     0.41     1.78     8.68     0  01:43        1.78
  YS02001607           JUNCTION     0.41     1.68     8.53     0  01:43        1.65
  YS02001610           JUNCTION     0.46     1.68     8.48     0  01:43        1.68
  YS02001613           JUNCTION     0.41     1.70     8.54     0  01:43        1.66
  YS02001616           JUNCTION     0.35     1.61     8.52     0  01:43        1.60
  YS02001619           JUNCTION     0.32     1.61     8.54     0  01:43        1.61
  YS02001622           JUNCTION     0.32     1.62     8.52     0  01:43        1.57
  YS02001625           JUNCTION     0.58     1.78     8.38     0  01:43        1.78
  YS02001629           JUNCTION     0.43     1.85     8.40     0  01:43        1.85
  YS02001633           JUNCTION     0.51     2.08     8.53     0  01:45        2.03
  YS02001641           JUNCTION     0.50     2.00     8.44     0  01:46        1.95
  YS02001644           JUNCTION     0.49     1.92     8.35     0  01:45        1.92
  YS02001647           JUNCTION     0.29     1.89     8.50     0  01:45        1.75
  YS02001649           JUNCTION     0.33     2.05     8.44     0  01:47        1.98
  YS02001652           JUNCTION     0.24     1.99     8.58     0  01:47        1.86
  YS02001655           JUNCTION     0.19     1.95     8.80     0  01:47        1.69
  YS02001658           JUNCTION     0.13     1.96     9.10     0  01:47        1.49
  YS02001661           JUNCTION     0.16     1.61     9.01     0  01:47        1.32
  YS02001664           JUNCTION     0.05     0.93     8.86     0  01:47        0.90
  YS02001745           JUNCTION     0.07     1.66     9.18     0  01:47        0.87
  YS02001748           JUNCTION     0.13     1.98     9.06     0  01:47        1.29
  YS02001751           JUNCTION     0.16     2.03     8.91     0  01:47        1.45
  YS02001754           JUNCTION     0.22     2.09     8.70     0  01:47        1.70
  YS02001757           JUNCTION     0.37     2.18     8.44     0  01:47        2.01
  YS02001759           JUNCTION     0.31     2.16     8.52     0  01:47        2.01
  YS02001762           JUNCTION     0.30     2.11     8.51     0  01:47        1.98
  YS02001765           JUNCTION     0.28     2.06     8.51     0  01:47        1.94
  YS02001767           JUNCTION     0.28     2.01     8.49     0  01:47        1.92
  YS02001770           JUNCTION     0.28     1.95     8.44     0  01:46        1.94
  YS02001774           JUNCTION     0.35     2.01     8.43     0  01:46        1.99
  YS02001779           JUNCTION     0.20     1.68     8.37     0  01:46        1.68
  YS02001783           JUNCTION     0.22     1.32     7.46     0  01:45        1.24
  YS02001784           JUNCTION     0.23     1.19     7.26     0  01:45        1.12
  YS02001786           JUNCTION     0.20     0.92     6.95     0  01:45        0.88
  YS02001788           JUNCTION     0.14     0.62     6.60     0  01:48        0.62
  YS02001790           JUNCTION     0.17     0.73     6.37     0  01:47        0.72
  YS02001791           JUNCTION     0.10     0.44     5.91     0  01:47        0.43
  YS02001793           JUNCTION     0.06     0.31     5.15     0  01:47        0.30
  YS02001882           JUNCTION     0.28     1.83     8.55     0  01:44        1.65
  YS02001884           JUNCTION     0.38     1.90     8.52     0  01:44        1.74
  YS02001887           JUNCTION     0.45     1.90     8.44     0  01:44        1.83
  YS02001890           JUNCTION     0.48     1.81     8.32     0  01:44        1.81
  YS02001895           JUNCTION     0.25     1.75     8.50     0  01:44        1.56
  YS02001898           JUNCTION     0.26     1.77     8.51     0  01:44        1.56
  YS02001901           JUNCTION     0.38     1.82     8.43     0  01:44        1.67
  YS02001904           JUNCTION     0.36     1.68     8.31     0  01:44        1.64
  YS02001907           JUNCTION     0.68     1.96     8.25     0  01:44        1.96
  YS02001910           JUNCTION     0.48     2.10     8.61     0  01:44        1.92
  YS02001915           JUNCTION     0.29     2.00     8.72     0  01:44        1.83
  YS02001918           JUNCTION     0.16     1.81     8.88     0  01:46        1.53
  YS02001920           JUNCTION     0.23     2.14     9.15     0  01:46        1.62
  YS02001923           JUNCTION     0.12     2.03     9.29     0  01:46        1.39
  YS02001926           JUNCTION     0.15     1.90     9.35     0  01:46        1.22
  YS02001929           JUNCTION     0.08     1.78     9.47     0  01:46        0.97
  YS02006553           JUNCTION     0.68     1.99     8.27     0  01:45        1.97
  YS02006556           JUNCTION     0.66     2.00     8.31     0  01:45        1.96
  YS02006558           JUNCTION     0.70     2.04     8.30     0  01:45        2.01
  YS02006561           JUNCTION     0.14     1.01     7.67     0  01:45        0.90
  YS02163301           JUNCTION     0.45     1.96     8.48     0  01:45        1.92
  YS02163601           JUNCTION     0.55     2.08     8.48     0  01:45        2.04
  YS02164001           JUNCTION     0.48     2.04     8.49     0  01:45        1.96
  CC-1                 OUTFALL      0.00     0.00     0.00     0  00:00        0.00
  CC-2                 OUTFALL      0.00     0.00     0.00     0  00:00        0.00
  JK-1                 OUTFALL      0.00     0.00     0.00     0  00:00        0.00
  JK-2                 OUTFALL      0.00     0.00     0.00     0  00:00        0.00
  WSC                  OUTFALL      0.18     0.30     0.97     0  02:20        0.30
  CC-storage           STORAGE      0.96     1.79     7.29     0  02:24        1.79
  JK-storage           STORAGE      3.23     4.24     5.04     0  01:47        4.18
  
  
  *******************
  Node Inflow Summary
  *******************
  
  -------------------------------------------------------------------------------------------------
                                  Maximum  Maximum                  Lateral       Total        Flow
                                  Lateral    Total  Time of Max      Inflow      Inflow     Balance
                                   Inflow   Inflow   Occurrence      Volume      Volume       Error
  Node                 Type           LPS      LPS  days hr:min    10^6 ltr    10^6 ltr     Percent
  -------------------------------------------------------------------------------------------------
  WS02003060           JUNCTION     16.53   549.77     0  02:16       0.476        5.95       0.055
  WS02003066           JUNCTION      0.00   532.36     0  02:18           0        5.48       0.036
  WS02003067           JUNCTION      0.00   532.31     0  02:17           0        5.48       0.093
  WS02003069           JUNCTION      0.32   549.19     0  02:11     0.00922        5.96       0.080
  WS02003072           JUNCTION      0.00   548.87     0  02:19           0        5.95       0.130
  WS02003073           JUNCTION      1.82   550.89     0  02:19      0.0524           6       0.106
  WS02004401           JUNCTION      0.00   537.95     0  02:05           0        5.63       0.260
  WS02004402           JUNCTION      0.00   537.28     0  02:05           0        5.61       0.255
  WS02004403           JUNCTION      0.00   536.61     0  02:06           0         5.6       0.241
  WS02004404           JUNCTION      0.16   536.42     0  02:06     0.00467        5.59       0.197
  WS02004405           JUNCTION      0.04   536.19     0  02:06      0.0011        5.58       0.281
  WS02004406           JUNCTION      0.00   536.34     0  02:06           0        5.56       0.470
  WS02004407           JUNCTION      0.00   535.72     0  02:06           0        5.54       0.067
  WS02004409           JUNCTION      0.00   535.35     0  02:06           0        5.54       0.123
  WS02004410           JUNCTION      0.00   534.09     0  02:16           0        5.53       0.146
  WS02004411           JUNCTION      0.00   533.24     0  02:15           0        5.52       0.158
  WS02004412           JUNCTION      0.00   532.72     0  02:16           0        5.51       0.187
  WS02004413           JUNCTION      0.00   532.59     0  02:17           0         5.5       0.309
  WS02006109           JUNCTION      1.23   565.67     0  03:06      0.0354        5.71       0.219
  WS02006110           JUNCTION      0.00   568.54     0  03:06           0        5.69       0.223
  WS02006111           JUNCTION      0.00   567.07     0  03:06           0        5.67       0.044
  WS02006112           JUNCTION      0.00   543.60     0  03:08           0        5.67       0.398
  WS02006113           JUNCTION      0.00   578.88     0  03:06           0        5.68       0.095
  WS02006115           JUNCTION      0.00   555.19     0  01:57           0        5.65       0.207
  WS02006116           JUNCTION      0.00   540.48     0  03:07           0        5.64       0.177
  WS02006228           JUNCTION      0.00   559.95     0  03:06           0        5.68       0.127
  WS02006229           JUNCTION      0.00   559.38     0  02:38           0        5.69       0.176
  WS02006230           JUNCTION     10.28   609.10     0  03:53       0.296        5.69       0.091
  WS02006231           JUNCTION      0.00   617.61     0  03:53           0        5.39      -0.041
  WS02006232           JUNCTION      0.00   613.88     0  03:53           0        5.42       0.420
  WS02006234           JUNCTION      0.00   596.62     0  03:53           0         5.4      -0.225
  WS02006235           JUNCTION      0.00   570.62     0  03:53           0        5.47       0.303
  WS02006238           JUNCTION      0.00   426.27     0  02:20           0        4.47      -0.170
  WS02006239           JUNCTION      0.00   423.98     0  02:15           0        4.44      -0.147
  WS02006240           JUNCTION      0.00   422.05     0  03:25           0        4.41      -0.020
  WS02006242           JUNCTION      0.00   422.79     0  03:25           0         4.4       0.095
  WS02006243           JUNCTION      0.00   423.72     0  03:25           0        4.39       0.094
  WS02006245           JUNCTION      0.00   424.25     0  03:25           0        4.41       0.421
  WS02006247           JUNCTION      0.00   424.99     0  03:25           0        4.41       0.049
  WS02006248           JUNCTION      0.00   425.51     0  03:25           0        4.41       0.103
  WS02006249           JUNCTION      0.00   459.02     0  00:00           0        4.68       0.367
  WS02006251           JUNCTION      0.08   408.58     0  03:53     0.00222        4.68      -0.038
  WS02006252           JUNCTION      0.00   400.00     0  00:00           0        4.68      -0.044
  WS02006256           JUNCTION      0.00   300.00     0  00:00           0        1.51      -0.812
  WSF200               JUNCTION      0.00   532.39     0  02:18           0        5.48       0.017
  YS02001580           JUNCTION      0.00   120.65     0  01:43           0     0.00451       0.662
  YS02001583           JUNCTION      0.00   204.55     0  01:43           0      0.0154      -6.365
  YS02001586           JUNCTION    782.64   782.73     0  01:53        1.94        1.95       0.075
  YS02001590           JUNCTION      0.00   318.47     0  02:19           0        1.46      -0.028
  YS02001593           JUNCTION      0.00   318.46     0  02:19           0        1.46       0.005
  YS02001596           JUNCTION      0.00   318.16     0  02:03           0        1.46      -0.007
  YS02001600           JUNCTION      0.00   318.14     0  01:58           0        1.46       0.003
  YS02001601           JUNCTION   1420.86  1738.55     0  01:51        2.66        4.12       0.014
  YS02001602           JUNCTION      0.00   538.34     0  01:42           0        2.42       0.015
  YS02001605           JUNCTION      0.00   538.27     0  01:42           0        2.27       0.017
  YS02001607           JUNCTION      0.00   538.45     0  01:42           0        2.27       0.084
  YS02001610           JUNCTION      0.00   774.95     0  01:53           0        2.59       0.087
  YS02001613           JUNCTION      0.00   549.06     0  01:42           0        2.02       0.079
  YS02001616           JUNCTION      0.00   554.18     0  01:42           0        2.02       0.020
  YS02001619           JUNCTION   1391.01  1391.01     0  01:53        3.11        4.82      -0.003
  YS02001622           JUNCTION      0.00   964.69     0  01:51           0         4.5      -0.004
  YS02001625           JUNCTION      0.00  1372.31     0  01:54           0        4.77       0.196
  YS02001629           JUNCTION      0.00   939.79     0  01:43           0        3.58       0.010
  YS02001633           JUNCTION   1067.02  1398.36     0  01:45        1.95        5.19       0.067
  YS02001641           JUNCTION      0.00  1396.56     0  01:45           0        4.87       0.058
  YS02001644           JUNCTION    956.59  1826.39     0  01:45        1.69        6.55       0.052
  YS02001647           JUNCTION      0.00  1826.53     0  01:45           0        5.92       0.009
  YS02001649           JUNCTION      0.00  2039.29     0  01:44           0        7.47       0.007
  YS02001652           JUNCTION      0.00   959.92     0  01:48           0        1.55      -0.069
  YS02001655           JUNCTION      0.15   958.40     0  01:48     0.00443        1.55      -0.056
  YS02001658           JUNCTION      0.00   957.70     0  01:48           0        1.55      -0.063
  YS02001661           JUNCTION      0.00   954.71     0  01:50           0        1.55       0.002
  YS02001664           JUNCTION    928.67   928.67     0  01:50        1.54        1.54      -0.021
  YS02001745           JUNCTION    604.14   615.84     0  01:47       0.931       0.933       0.149
  YS02001748           JUNCTION      0.04   624.14     0  01:49      0.0013       0.935      -0.244
  YS02001751           JUNCTION      0.01   625.41     0  01:49    0.000317       0.943       0.075
  YS02001754           JUNCTION      0.26   626.15     0  01:49     0.00749       0.958      -0.237
  YS02001757           JUNCTION      0.00  3369.92     0  01:48           0        11.4       0.025
  YS02001759           JUNCTION    837.19  1380.52     0  01:47        1.29        2.96      -0.005
  YS02001762           JUNCTION      0.00   799.07     0  01:47           0        1.67      -0.008
  YS02001765           JUNCTION      0.00   800.32     0  01:47           0        1.67       0.017
  YS02001767           JUNCTION      0.54   801.15     0  01:47      0.0154        1.67       0.005
  YS02001770           JUNCTION   1175.03  1175.03     0  01:51        1.96        2.01       0.004
  YS02001774           JUNCTION      0.00   670.19     0  01:51           0       0.371       0.284
  YS02001779           JUNCTION      0.01   670.85     0  01:50    0.000144       0.324      -0.318
  YS02001783           JUNCTION      0.00  1167.44     0  01:48           0        4.42       0.006
  YS02001784           JUNCTION      1.06  1169.15     0  01:48      0.0305        4.45       0.011
  YS02001786           JUNCTION      0.06  1168.51     0  01:48     0.00162        4.45       0.017
  YS02001788           JUNCTION      0.07  1168.98     0  01:48     0.00204        4.45       0.006
  YS02001790           JUNCTION      0.15  1180.45     0  01:47     0.00446        4.45       0.038
  YS02001791           JUNCTION      0.00  1291.79     0  01:47           0        4.45      -0.047
  YS02001793           JUNCTION      0.00  1252.37     0  01:47           0        4.45       0.005
  YS02001882           JUNCTION      0.00    49.79     0  01:44           0      0.0127       4.255
  YS02001884           JUNCTION      0.00    83.01     0  01:43           0      0.0486       5.438
  YS02001887           JUNCTION    908.44   909.40     0  01:50        1.34        1.37       0.320
  YS02001890           JUNCTION      0.00   908.77     0  01:50           0        1.33       0.377
  YS02001895           JUNCTION      0.00   518.51     0  01:51           0        1.18       0.147
  YS02001898           JUNCTION      0.00   517.68     0  01:56           0        1.18      -0.000
  YS02001901           JUNCTION      0.00   517.85     0  01:56           0        1.18       0.271
  YS02001904           JUNCTION      0.00   517.55     0  01:56           0        1.19       0.230
  YS02001907           JUNCTION      0.00  2095.88     0  01:51           0        4.11       0.441
  YS02001910           JUNCTION      0.00  1550.78     0  01:51           0        2.92       0.246
  YS02001915           JUNCTION   1035.10  1550.42     0  01:51        1.86        2.97       0.049
  YS02001918           JUNCTION      0.00   518.20     0  01:51           0        1.14      -0.003
  YS02001920           JUNCTION      2.87   518.64     0  01:51      0.0827        1.12       0.091
  YS02001923           JUNCTION      0.04   514.77     0  01:51     0.00109        1.02      -0.082
  YS02001926           JUNCTION      0.05   690.30     0  01:46      0.0015           1      -0.111
  YS02001929           JUNCTION    500.52   615.82     0  01:46       0.981       0.985       0.006
  YS02006553           JUNCTION      0.00   794.75     0  02:11           0        2.51       0.468
  YS02006556           JUNCTION      0.00   794.70     0  02:11           0        2.52       0.309
  YS02006558           JUNCTION   1202.48  1202.48     0  01:50        1.96        4.45       0.080
  YS02006561           JUNCTION      0.00  1167.66     0  01:48           0        4.41      -0.005
  YS02163301           JUNCTION      0.00   927.45     0  01:45           0        3.57       0.045
  YS02163601           JUNCTION      0.11  1398.23     0  01:45     0.00317        4.87       0.100
  YS02164001           JUNCTION      0.00  1397.56     0  01:45           0        4.87       0.048
  CC-1                 OUTFALL       0.00   683.00     0  00:00           0        3.93       0.000
  CC-2                 OUTFALL       0.00   683.00     0  00:00           0        3.14       0.000
  JK-1                 OUTFALL       0.00  1000.00     0  00:00           0        2.86       0.000
  JK-2                 OUTFALL       0.00  1000.00     0  00:00           0      0.0484       0.000
  WSC                  OUTFALL       0.00   550.63     0  02:20           0        5.99       0.000
  CC-storage           STORAGE       0.00  3369.51     0  01:47           0        13.6      -0.130
  JK-storage           STORAGE       0.00  1229.40     0  01:47           0         4.6       0.137
  
  
  **********************
  Node Surcharge Summary
  **********************
  
  Surcharging occurs when water rises above the top of the highest conduit.
  ---------------------------------------------------------------------
                                               Max. Height   Min. Depth
                                   Hours       Above Crown    Below Rim
  Node                 Type      Surcharged         Meters       Meters
  ---------------------------------------------------------------------
  WS02006109           JUNCTION        2.29          0.435        1.385
  WS02006110           JUNCTION        0.77          0.270        1.580
  WS02006112           JUNCTION        0.89          0.084        1.596
  WS02006228           JUNCTION        2.28          0.676        1.524
  WS02006229           JUNCTION        2.29          0.793        1.657
  WS02006230           JUNCTION        0.78          0.896        0.674
  WS02006231           JUNCTION        1.02          0.819        0.711
  WS02006232           JUNCTION        2.31          0.922        0.558
  WS02006234           JUNCTION        1.58          0.806        0.434
  WS02006235           JUNCTION        2.23          0.943        0.347
  WS02006238           JUNCTION        2.29          0.992        0.438
  WS02006239           JUNCTION        2.25          0.916        0.374
  WS02006240           JUNCTION        2.28          0.840        0.550
  WS02006242           JUNCTION        2.30          0.820        0.000
  WS02006243           JUNCTION        2.28          0.709        0.061
  WS02006245           JUNCTION        2.27          0.614        0.236
  WS02006247           JUNCTION        2.27          0.557        0.203
  WS02006248           JUNCTION        2.26          0.380        0.000
  WS02006249           JUNCTION        2.26          0.390        0.000
  WS02006251           JUNCTION        1.15          0.786        0.394
  WS02006252           JUNCTION        2.50          1.100        0.000
  WS02006256           JUNCTION        6.48          2.050        0.000
  YS02001580           JUNCTION        0.72          0.450        0.000
  YS02001583           JUNCTION        0.73          0.500        0.000
  YS02001586           JUNCTION        0.90          0.510        0.000
  YS02001590           JUNCTION        0.98          0.750        0.000
  YS02001593           JUNCTION        0.98          0.784        0.056
  YS02001596           JUNCTION        1.10          0.959        0.111
  YS02001600           JUNCTION        1.27          1.190        0.000
  YS02001601           JUNCTION        1.59          1.440        0.000
  YS02001602           JUNCTION        1.50          1.270        0.000
  YS02001605           JUNCTION        1.46          1.180        0.000
  YS02001607           JUNCTION        0.98          0.680        0.000
  YS02001610           JUNCTION        1.01          0.680        0.000
  YS02001613           JUNCTION        0.97          0.700        0.000
  YS02001616           JUNCTION        0.93          0.610        0.000
  YS02001619           JUNCTION        0.92          0.610        0.000
  YS02001622           JUNCTION        0.92          0.620        0.000
  YS02001625           JUNCTION        1.11          0.780        0.000
  YS02001629           JUNCTION        0.86          0.470        0.000
  YS02001633           JUNCTION        1.15          1.060        0.000
  YS02001641           JUNCTION        1.10          1.003        0.097
  YS02001644           JUNCTION        1.08          0.920        0.000
  YS02001647           JUNCTION        0.86          0.887        0.013
  YS02001649           JUNCTION        1.02          1.050        0.000
  YS02001652           JUNCTION        0.80          0.955        0.175
  YS02001655           JUNCTION        0.58          0.949        0.251
  YS02001658           JUNCTION        0.30          0.958        0.342
  YS02001661           JUNCTION        0.07          0.541        0.849
  YS02001745           JUNCTION        0.01          0.663        0.687
  YS02001748           JUNCTION        0.23          0.903        0.287
  YS02001751           JUNCTION        0.43          1.031        0.169
  YS02001754           JUNCTION        0.69          1.040        0.110
  YS02001757           JUNCTION        1.10          1.183        0.027
  YS02001759           JUNCTION        1.00          1.156        0.054
  YS02001762           JUNCTION        0.96          1.110        0.040
  YS02001765           JUNCTION        0.91          1.061        0.039
  YS02001767           JUNCTION        0.87          1.006        0.024
  YS02001770           JUNCTION        0.83          0.920        0.000
  YS02001774           JUNCTION        0.94          1.009        0.041
  YS02001779           JUNCTION        0.68          0.680        0.000
  YS02001783           JUNCTION        0.62          0.522        1.078
  YS02001784           JUNCTION        0.60          0.391        1.099
  YS02001786           JUNCTION        0.49          0.122        1.308
  YS02001882           JUNCTION        0.57          0.830        0.000
  YS02001884           JUNCTION        0.58          0.840        0.030
  YS02001887           JUNCTION        0.62          0.848        0.102
  YS02001890           JUNCTION        0.63          0.760        0.000
  YS02001895           JUNCTION        0.55          0.750        0.000
  YS02001898           JUNCTION        0.55          0.740        0.000
  YS02001901           JUNCTION        0.60          0.819        0.051
  YS02001904           JUNCTION        0.59          0.681        0.169
  YS02001907           JUNCTION        0.84          0.950        0.000
  YS02001910           JUNCTION        0.66          1.100        0.000
  YS02001915           JUNCTION        0.56          1.000        0.000
  YS02001918           JUNCTION        0.48          0.810        0.000
  YS02001920           JUNCTION        0.49          1.140        0.000
  YS02001923           JUNCTION        0.15          0.820        0.000
  YS02001926           JUNCTION        0.17          0.900        0.000
  YS02001929           JUNCTION        0.01          0.780        0.000
  YS02006553           JUNCTION        0.87          0.989        0.201
  YS02006556           JUNCTION        0.75          0.956        0.394
  YS02006558           JUNCTION        0.74          0.936        0.464
  YS02006561           JUNCTION        0.44          0.209        0.941
  YS02163301           JUNCTION        1.13          0.959        0.071
  YS02163601           JUNCTION        1.19          1.080        0.000
  YS02164001           JUNCTION        1.10          1.036        0.064
  
  
  *********************
  Node Flooding Summary
  *********************
  
  Flooding refers to all water that overflows a node, whether it ponds or not.
  --------------------------------------------------------------------------
                                                             Total   Maximum
                                 Maximum   Time of Max       Flood    Ponded
                        Hours       Rate    Occurrence      Volume     Depth
  Node                 Flooded       LPS   days hr:min    10^6 ltr    Meters
  --------------------------------------------------------------------------
  WS02006242              0.01      1.77      0  03:06       0.000     0.000
  WS02006248              0.02     18.97      0  02:10       0.001     0.000
  WS02006249              1.09     98.91      0  01:50       0.252     0.000
  WS02006252              0.01    245.63      0  00:00       0.000     0.000
  WS02006256              1.39    293.19      0  00:00       0.489     0.000
  YS02001580              0.01    106.58      0  01:43       0.000     0.000
  YS02001583              0.01    168.55      0  01:43       0.000     0.000
  YS02001586              0.59    465.17      0  01:53       0.479     0.000
  YS02001590              0.01     52.14      0  01:41       0.000     0.000
  YS02001600              0.01      0.97      0  01:43       0.000     0.000
  YS02001601              0.82   1340.69      0  01:51       1.696     0.000
  YS02001602              0.73     62.07      0  02:00       0.146     0.000
  YS02001605              0.01      2.50      0  01:43       0.000     0.000
  YS02001607              0.01      6.68      0  01:43       0.000     0.000
  YS02001610              0.63    774.65      0  01:53       0.876     0.000
  YS02001613              0.01      6.30      0  01:43       0.000     0.000
  YS02001616              0.01     19.67      0  01:43       0.000     0.000
  YS02001619              0.01     65.32      0  01:43       0.000     0.000
  YS02001622              0.01    180.51      0  01:43       0.000     0.000
  YS02001625              0.61   1372.28      0  01:54       1.495     0.000
  YS02001629              0.14    295.05      0  01:49       0.077     0.000
  YS02001633              0.01      3.41      0  01:45       0.000     0.000
  YS02001644              0.25   1214.90      0  01:50       0.620     0.000
  YS02001649              0.01     52.52      0  01:47       0.000     0.000
  YS02001770              0.01     42.54      0  01:47       0.000     0.000
  YS02001779              0.22    670.81      0  01:51       0.304     0.000
  YS02001882              0.01     23.99      0  01:44       0.000     0.000
  YS02001890              0.19    393.43      0  01:50       0.147     0.000
  YS02001895              0.01     61.47      0  01:44       0.000     0.000
  YS02001898              0.01    120.75      0  01:44       0.000     0.000
  YS02001907              0.42   2095.86      0  01:51       1.597     0.000
  YS02001910              0.01     17.81      0  01:44       0.000     0.000
  YS02001915              0.01    178.62      0  01:44       0.000     0.000
  YS02001918              0.01    260.36      0  01:46       0.004     0.000
  YS02001920              0.01     39.87      0  01:46       0.000     0.000
  YS02001923              0.01    318.39      0  01:46       0.001     0.000
  YS02001926              0.01    358.57      0  01:46       0.002     0.000
  YS02001929              0.01    177.00      0  01:46       0.001     0.000
  YS02163601              0.01      7.04      0  01:45       0.000     0.000
  
  
  **********************
  Storage Volume Summary
  **********************
  
  ------------------------------------------------------------------------------------------------
                         Average    Avg   Evap  Exfil     Maximum    Max    Time of Max    Maximum
                          Volume   Pcnt   Pcnt   Pcnt      Volume   Pcnt     Occurrence    Outflow
  Storage Unit           1000 m³   Full   Loss   Loss     1000 m³   Full    days hr:min        LPS
  ------------------------------------------------------------------------------------------------
  CC-storage               2.685   41.9    0.0    0.0       4.980   77.7       0  02:24    1783.53
  JK-storage               0.163   55.8    0.0    0.0       0.213   73.1       0  01:47    2300.00
  
  
  ***********************
  Outfall Loading Summary
  ***********************
  
  -----------------------------------------------------------
                         Flow       Avg       Max       Total
                         Freq      Flow      Flow      Volume
  Outfall Node           Pcnt       LPS       LPS    10^6 ltr
  -----------------------------------------------------------
  CC-1                  19.29    683.00    683.00       3.933
  CC-2                  15.97    683.00    683.00       3.140
  JK-1                  11.21   1000.00   1000.00       2.858
  JK-2                   0.13   1000.00   1000.00       0.048
  WSC                   99.96    243.79    550.63       5.992
  -----------------------------------------------------------
  System                29.31   3609.79   3366.23      15.971
  
  
  ********************
  Link Flow Summary
  ********************
  
  -----------------------------------------------------------------------------
                                 Maximum  Time of Max   Maximum    Max/    Max/
                                  |Flow|   Occurrence   |Veloc|    Full    Full
  Link                 Type          LPS  days hr:min     m/sec    Flow   Depth
  -----------------------------------------------------------------------------
  1                    CONDUIT    550.63     0  02:20      2.82    0.19    0.30
  WS02003060WS02003069 CONDUIT    548.87     0  02:11      1.64    0.21    0.34
  WS02003066WSF200     CONDUIT    532.39     0  02:18      2.85    0.09    0.22
  WS02003067WS02003066 CONDUIT    532.36     0  02:18      1.20    0.17    0.41
  WS02003069WS02003072 CONDUIT    548.87     0  02:19      1.37    0.26    0.39
  WS02003072WS02003073 CONDUIT    549.07     0  02:19      1.43    1.19    0.37
  WS02004401WS02004402 CONDUIT    537.28     0  02:05      0.98    0.64    0.86
  WS02004402WS02004403 CONDUIT    536.61     0  02:06      0.97    0.77    0.88
  WS02004403WS02004404 CONDUIT    536.26     0  02:06      0.92    0.39    0.93
  WS02004404WS02004405 CONDUIT    536.15     0  02:06      1.08    5.25    0.96
  WS02004405WS02004406 CONDUIT    536.34     0  02:06      0.99    1.06    0.96
  WS02004406WS02004407 CONDUIT    535.72     0  02:06      1.04    0.24    0.63
  WS02004407WS02004409 CONDUIT    535.35     0  02:06      1.55    0.19    0.48
  WS02004409WS02004410 CONDUIT    534.09     0  02:16      1.03    0.69    0.67
  WS02004410WS02004411 CONDUIT    533.24     0  02:15      0.97    0.73    0.68
  WS02004411WS02004412 CONDUIT    532.72     0  02:16      0.92    0.76    0.69
  WS02004412WS02004413 CONDUIT    532.59     0  02:17      0.82    0.36    0.78
  WS02004413WS02003067 CONDUIT    532.31     0  02:17      1.10    0.23    0.59
  WS02006109WS02006110 CONDUIT    568.54     0  03:06      1.13    1.09    1.00
  WS02006110WS02006113 CONDUIT    578.88     0  03:06      1.39    0.53    0.79
  WS02006111WS02006112 CONDUIT    543.60     0  03:08      1.81    0.26    0.67
  WS02006112WS02006115 CONDUIT    555.19     0  01:57      0.85    0.33    0.87
  WS02006113WS02006111 CONDUIT    567.07     0  03:06      2.48    0.68    0.46
  WS02006115WS02006116 CONDUIT    540.48     0  03:07      1.04    0.69    0.76
  WS02006116WS02004401 CONDUIT    537.95     0  02:05      0.98    0.74    0.84
  WS02006228WS02006109 CONDUIT    564.44     0  03:06      1.12    2.47    1.00
  WS02006229WS02006228 CONDUIT    559.95     0  03:06      1.14    1.85    1.00
  WS02006230WS02006229 CONDUIT    559.38     0  02:38      1.45   12.45    1.00
  WS02006231WS02006230 CONDUIT    598.82     0  03:53      1.64    9.08    1.00
  WS02006232WS02006231 CONDUIT    617.61     0  03:53      1.61    1.29    1.00
  WS02006234WS02006232 CONDUIT    613.88     0  03:53      1.60    1.24    1.00
  WS02006235WS02006234 CONDUIT    596.62     0  03:53      1.55    6.29    1.00
  WS02006238WS02006235 CONDUIT    426.21     0  02:15      1.46    0.95    1.00
  WS02006239WS02006238 CONDUIT    426.27     0  02:20      1.20    1.36    1.00
  WS02006240WS02006239 CONDUIT    423.98     0  02:15      1.31    1.33    1.00
  WS02006242WS02006240 CONDUIT    422.05     0  03:25      1.17    1.68    1.00
  WS02006243WS02006242 CONDUIT    422.79     0  03:25      1.42    0.90    1.00
  WS02006245WS02006243 CONDUIT    423.72     0  03:25      1.45    1.25    1.00
  WS02006247WS02006245 CONDUIT    424.25     0  03:25      1.43    3.36    1.00
  WS02006248WS02006247 CONDUIT    424.99     0  03:25      1.45    0.93    1.00
  WS02006249WS02006248 CONDUIT    425.51     0  03:25      1.39    2.33    1.00
  WS02006251WS02006249 CONDUIT    459.02     0  00:00      1.99    1.32    1.00
  WS02006252WS02006251 CONDUIT    408.50     0  03:53     24.61    1.50    1.00
  WS02006256WS02006235 CONDUIT    288.91     0  00:00      4.23    3.06    1.00
  WSF200WS02003060     CONDUIT    533.24     0  02:16      2.06    0.12    0.28
  YS02001580YS02001583 CONDUIT    120.65     0  01:43      0.76    0.47    1.00
  YS02001583YS02001586 CONDUIT    175.97     0  01:43      0.74    0.27    1.00
  YS02001586YS02001590 CONDUIT    318.47     0  02:19      1.26    0.56    1.00
  YS02001590YS02001593 CONDUIT    318.46     0  02:19      1.13    2.00    1.00
  YS02001593YS02001596 CONDUIT    318.16     0  02:03      1.73    0.50    1.00
  YS02001596YS02001600 CONDUIT    318.14     0  01:58      1.23    0.62    1.00
  YS02001600YS02001601 CONDUIT    318.00     0  02:11      1.12    0.55    1.00
  YS02001601YS02001602 CONDUIT    538.34     0  01:42      1.90    1.94    1.00
  YS02001602YS02001605 CONDUIT    538.27     0  01:42      1.90   11.39    1.00
  YS02001605YS02001607 CONDUIT    538.45     0  01:42      1.90    2.95    1.00
  YS02001607YS02001610 CONDUIT    544.83     0  01:42      0.69    0.52    1.00
  YS02001610YS02001613 CONDUIT    549.06     0  01:42      0.70    0.63    1.00
  YS02001613YS02001616 CONDUIT    554.18     0  01:42      0.71    0.47    1.00
  YS02001616YS02001619 CONDUIT    530.34     0  01:43      0.68    0.92    1.00
  YS02001619YS02001622 CONDUIT    964.69     0  01:51      1.23    1.42    1.00
  YS02001622YS02001625 CONDUIT    966.00     0  01:51      1.23    0.52    1.00
  YS02001625YS02001629 CONDUIT    939.79     0  01:43      1.20    0.45    1.00
  YS02001629YS02163301 CONDUIT    927.45     0  01:45      1.18    1.14    1.00
  YS02001633YS02163601 CONDUIT   1398.12     0  01:45      1.78    1.47    1.00
  YS02001641YS02001644 CONDUIT   1395.92     0  01:45      1.78    4.51    1.00
  YS02001644YS02001647 CONDUIT   1826.53     0  01:45      2.35    1.07    1.00
  YS02001647YS02001649 CONDUIT   1834.56     0  01:45      2.35    0.97    1.00
  YS02001649YS02001757 CONDUIT   2045.58     0  01:45      2.60    1.24    1.00
  YS02001652YS02001649 CONDUIT    959.98     0  01:48      1.22    0.48    1.00
  YS02001655YS02001652 CONDUIT    959.92     0  01:48      1.41    0.47    1.00
  YS02001658YS02001655 CONDUIT    958.25     0  01:48      1.95    0.41    1.00
  YS02001661YS02001658 CONDUIT    957.70     0  01:48      2.35    0.38    1.00
  YS02001664YS02001661 CONDUIT    954.71     0  01:50      2.39    0.30    0.97
  YS02001745YS02001748 CONDUIT    624.09     0  01:49      2.24    0.24    1.00
  YS02001748YS02001751 CONDUIT    625.40     0  01:49      1.76    0.32    1.00
  YS02001751YS02001754 CONDUIT    625.89     0  01:49      1.51    0.30    1.00
  YS02001754YS02001757 CONDUIT    625.81     0  01:49      0.80    0.25    1.00
  YS02001757CaochengTiaoxuchi CONDUIT   3369.51     0  01:47      4.29    1.46    1.00
  YS02001759YS02001757 CONDUIT   1377.67     0  01:47      1.75    0.98    1.00
  YS02001762YS02001759 CONDUIT    797.20     0  01:47      1.02    0.92    1.00
  YS02001765YS02001762 CONDUIT    799.07     0  01:47      1.02    0.75    1.00
  YS02001767YS02001765 CONDUIT    800.32     0  01:47      1.02    1.01    1.00
  YS02001770YS02001767 CONDUIT    800.61     0  01:47      1.02    3.17    1.00
  YS02001774YS02001770 CONDUIT    670.19     0  01:51      0.85    0.43    1.00
  YS02001779YS02001774 CONDUIT    670.84     0  01:50      0.85    0.34    1.00
  YS02001783YS02001784 CONDUIT   1168.09     0  01:48      2.32    1.61    1.00
  YS02001784YS02001785 CONDUIT   1168.45     0  01:48      2.32    2.72    1.00
  YS02001786YS02001788 CONDUIT   1168.91     0  01:48      2.49    2.25    0.89
  YS02001788YS02001790 CONDUIT   1180.29     0  01:47      2.72    0.87    0.84
  YS02001790YS02001791 CONDUIT   1291.79     0  01:47      3.43    1.41    0.70
  YS02001791YS02001793 CONDUIT   1252.37     0  01:47      6.65    0.54    0.46
  YS02001793JiankangQianchi CONDUIT   1229.40     0  01:47      2.38    0.10    0.66
  YS02001882YS02001884 CONDUIT     49.79     0  01:44      0.15    0.06    1.00
  YS02001884YS02001887 CONDUIT     83.01     0  01:43      0.11    0.11    1.00
  YS02001887YS02001890 CONDUIT    908.77     0  01:50      1.16    1.56    1.00
  YS02001890YS02001895 CONDUIT    518.51     0  01:51      0.66    0.24    1.00
  YS02001895YS02001898 CONDUIT    517.68     0  01:56      0.66    0.90    1.00
  YS02001898YS02001901 CONDUIT    517.85     0  01:56      0.66    0.33    1.00
  YS02001901YS02001904 CONDUIT    517.55     0  01:56      0.66    0.80    1.00
  YS02001904YS02001907 CONDUIT    519.75     0  01:51      0.66    0.18    1.00
  YS02001907YS02006553 CONDUIT    794.75     0  02:11      0.88    0.93    1.00
  YS02001910YS02001907 CONDUIT   1551.00     0  01:51      1.97    0.87    1.00
  YS02001915YS02001910 CONDUIT   1550.78     0  01:51      1.97    0.77    1.00
  YS02001918YS02001915 CONDUIT    517.84     0  01:51      0.66    0.29    1.00
  YS02001920YS02001918 CONDUIT    518.20     0  01:51      0.66    0.50    1.00
  YS02001923YS02001920 CONDUIT    515.77     0  01:51      0.70    0.23    1.00
  YS02001926YS02001923 CONDUIT    514.74     0  01:51      0.97    0.74    1.00
  YS02001929YS02001926 CONDUIT    515.69     0  01:51      1.16    0.24    1.00
  YS02006553YS02006556 CONDUIT    794.70     0  02:11      1.01    0.68    1.00
  YS02006556YS02006558 CONDUIT    795.76     0  02:11      1.01    0.63    1.00
  YS02006558YS02006561 CONDUIT   1167.66     0  01:48      4.13    2.58    1.00
  YS02006561YS02001783 CONDUIT   1167.44     0  01:48      2.32    0.60    1.00
  YS02163301YS02001633 CONDUIT    927.58     0  01:45      1.18    0.87    1.00
  YS02163601YS02164001 CONDUIT   1397.56     0  01:45      1.78    1.24    1.00
  YS02164001YS02001641 CONDUIT   1396.56     0  01:45      1.78    1.91    1.00
  CC-R1                PUMP       683.00     0  00:00              1.00
  CC-R2                PUMP       683.00     0  00:00              1.00
  CC-S1                PUMP       200.00     0  00:00              1.00
  CC-S2                PUMP       200.00     0  00:00              1.00
  JK-R1                PUMP      1000.00     0  00:00              1.00
  JK-R2                PUMP      1000.00     0  00:00              1.00
  JK-S                 PUMP       300.00     0  00:00              1.00
  
  
  ***************************
  Flow Classification Summary
  ***************************
  
  -------------------------------------------------------------------------------------
                      Adjusted    ---------- Fraction of Time in Flow Class ---------- 
                       /Actual         Up    Down  Sub   Sup   Up    Down  Norm  Inlet 
  Conduit               Length    Dry  Dry   Dry   Crit  Crit  Crit  Crit  Ltd   Ctrl  
  -------------------------------------------------------------------------------------
  1                       1.00   0.00  0.00  0.00  0.00  1.00  0.00  0.00  0.41  0.00
  WS02003060WS02003069    1.00   0.00  0.00  0.00  0.97  0.03  0.00  0.00  0.65  0.00
  WS02003066WSF200        1.00   0.13  0.00  0.00  0.00  0.87  0.00  0.00  0.75  0.00
  WS02003067WS02003066    1.00   0.10  0.02  0.00  0.88  0.00  0.00  0.00  0.00  0.00
  WS02003069WS02003072    1.00   0.00  0.00  0.00  0.99  0.01  0.00  0.00  0.70  0.00
  WS02003072WS02003073    1.00   0.00  0.00  0.00  0.00  0.00  0.00  1.00  0.00  0.00
  WS02004401WS02004402    1.00   0.02  0.00  0.00  0.98  0.00  0.00  0.00  0.00  0.00
  WS02004402WS02004403    1.00   0.02  0.00  0.00  0.97  0.00  0.00  0.00  0.00  0.00
  WS02004403WS02004404    1.00   0.00  0.03  0.00  0.97  0.00  0.00  0.00  0.00  0.00
  WS02004404WS02004405    1.00   0.00  0.00  0.00  1.00  0.00  0.00  0.00  0.01  0.00
  WS02004405WS02004406    1.00   0.00  0.00  0.00  1.00  0.00  0.00  0.00  0.00  0.00
  WS02004406WS02004407    1.00   0.00  0.05  0.00  0.95  0.00  0.00  0.00  0.00  0.00
  WS02004407WS02004409    1.00   0.05  0.00  0.00  0.94  0.01  0.00  0.00  0.94  0.00
  WS02004409WS02004410    1.00   0.05  0.00  0.00  0.95  0.00  0.00  0.00  0.03  0.00
  WS02004410WS02004411    1.00   0.05  0.00  0.00  0.95  0.00  0.00  0.00  0.01  0.00
  WS02004411WS02004412    1.00   0.05  0.00  0.00  0.95  0.00  0.00  0.00  0.00  0.00
  WS02004412WS02004413    1.00   0.05  0.00  0.00  0.94  0.00  0.00  0.00  0.01  0.00
  WS02004413WS02003067    1.00   0.06  0.04  0.00  0.00  0.00  0.90  0.00  0.00  0.00
  WS02006109WS02006110    1.00   0.00  0.01  0.00  0.98  0.00  0.01  0.00  0.00  0.00
  WS02006110WS02006113    1.00   0.01  0.01  0.00  0.98  0.00  0.00  0.00  0.00  0.00
  WS02006111WS02006112    1.00   0.02  0.00  0.00  0.98  0.00  0.00  0.00  0.98  0.00
  WS02006112WS02006115    1.00   0.02  0.00  0.00  0.97  0.00  0.00  0.00  0.00  0.00
  WS02006113WS02006111    1.00   0.02  0.00  0.00  0.00  0.98  0.00  0.00  0.17  0.00
  WS02006115WS02006116    1.00   0.02  0.00  0.00  0.97  0.00  0.00  0.01  0.00  0.00
  WS02006116WS02004401    1.00   0.02  0.00  0.00  0.98  0.00  0.00  0.00  0.00  0.00
  WS02006228WS02006109    1.00   0.00  0.00  0.00  1.00  0.00  0.00  0.00  0.00  0.00
  WS02006229WS02006228    1.00   0.00  0.00  0.00  0.99  0.00  0.00  0.01  0.00  0.00
  WS02006230WS02006229    1.00   0.00  0.00  0.00  0.99  0.00  0.00  0.01  0.01  0.00
  WS02006231WS02006230    1.00   0.00  0.00  0.00  0.30  0.00  0.70  0.00  0.00  0.00
  WS02006232WS02006231    1.00   0.00  0.00  0.00  0.98  0.00  0.02  0.00  0.00  0.00
  WS02006234WS02006232    1.00   0.00  0.00  0.00  1.00  0.00  0.00  0.00  0.04  0.00
  WS02006235WS02006234    1.00   0.00  0.00  0.00  0.91  0.00  0.09  0.00  0.00  0.00
  WS02006238WS02006235    1.00   0.00  0.00  0.00  1.00  0.00  0.00  0.00  0.00  0.00
  WS02006239WS02006238    1.00   0.00  0.00  0.00  1.00  0.00  0.00  0.00  0.18  0.00
  WS02006240WS02006239    1.00   0.00  0.00  0.00  0.72  0.00  0.00  0.28  0.04  0.00
  WS02006242WS02006240    1.00   0.00  0.00  0.00  0.98  0.00  0.02  0.00  0.00  0.00
  WS02006243WS02006242    1.00   0.00  0.00  0.00  0.98  0.00  0.00  0.02  0.44  0.00
  WS02006245WS02006243    1.00   0.00  0.00  0.00  0.83  0.00  0.00  0.16  0.02  0.00
  WS02006247WS02006245    1.00   0.00  0.00  0.00  0.98  0.00  0.00  0.02  0.00  0.00
  WS02006248WS02006247    1.00   0.00  0.00  0.00  0.98  0.00  0.00  0.02  0.34  0.00
  WS02006249WS02006248    1.00   0.00  0.00  0.00  0.56  0.00  0.44  0.00  0.00  0.00
  WS02006251WS02006249    1.00   0.00  0.00  0.00  0.99  0.01  0.00  0.00  0.46  0.00
  WS02006252WS02006251    1.00   0.00  0.50  0.00  0.14  0.00  0.36  0.00  0.00  0.00
  WS02006256WS02006235    1.00   0.00  0.00  0.00  1.00  0.00  0.00  0.00  0.00  0.00
  WSF200WS02003060        1.00   0.00  0.13  0.00  0.17  0.71  0.00  0.00  0.45  0.00
  YS02001580YS02001583    1.00   0.21  0.57  0.00  0.21  0.00  0.00  0.00  0.67  0.00
  YS02001583YS02001586    1.00   0.42  0.31  0.00  0.27  0.00  0.00  0.00  0.67  0.00
  YS02001586YS02001590    1.00   0.13  0.00  0.00  0.43  0.04  0.00  0.40  0.34  0.00
  YS02001590YS02001593    1.00   0.13  0.01  0.00  0.14  0.00  0.73  0.00  0.00  0.00
  YS02001593YS02001596    1.00   0.13  0.00  0.00  0.16  0.01  0.00  0.70  0.02  0.00
  YS02001596YS02001600    1.00   0.13  0.00  0.00  0.21  0.01  0.00  0.64  0.04  0.00
  YS02001600YS02001601    1.00   0.13  0.01  0.00  0.86  0.00  0.00  0.00  0.60  0.00
  YS02001601YS02001602    1.00   0.13  0.01  0.00  0.87  0.00  0.00  0.00  0.00  0.00
  YS02001602YS02001605    1.00   0.13  0.00  0.00  0.87  0.00  0.00  0.00  0.00  0.00
  YS02001605YS02001607    1.00   0.14  0.00  0.00  0.86  0.00  0.00  0.00  0.00  0.00
  YS02001607YS02001610    1.00   0.13  0.01  0.00  0.86  0.00  0.00  0.00  0.01  0.00
  YS02001610YS02001613    1.00   0.13  0.00  0.00  0.87  0.00  0.00  0.00  0.00  0.00
  YS02001613YS02001616    1.00   0.13  0.00  0.00  0.87  0.00  0.00  0.00  0.00  0.00
  YS02001616YS02001619    1.00   0.13  0.00  0.00  0.87  0.00  0.00  0.00  0.00  0.00
  YS02001619YS02001622    1.00   0.13  0.00  0.00  0.87  0.00  0.00  0.00  0.29  0.00
  YS02001622YS02001625    1.00   0.13  0.00  0.00  0.87  0.00  0.00  0.00  0.03  0.00
  YS02001625YS02001629    1.00   0.13  0.04  0.00  0.18  0.00  0.64  0.00  0.00  0.00
  YS02001629YS02163301    1.00   0.15  0.01  0.00  0.84  0.00  0.00  0.00  0.00  0.00
  YS02001633YS02163601    1.00   0.00  0.01  0.00  0.99  0.00  0.00  0.00  0.15  0.00
  YS02001641YS02001644    1.00   0.00  0.01  0.00  0.99  0.00  0.00  0.00  0.00  0.00
  YS02001644YS02001647    1.00   0.00  0.16  0.00  0.84  0.00  0.00  0.00  0.00  0.00
  YS02001647YS02001649    1.00   0.00  0.16  0.00  0.63  0.20  0.00  0.00  0.55  0.00
  YS02001649YS02001757    1.00   0.00  0.00  0.00  0.89  0.11  0.00  0.00  0.40  0.00
  YS02001652YS02001649    1.00   0.00  0.00  0.00  0.97  0.03  0.00  0.00  0.71  0.00
  YS02001655YS02001652    1.00   0.00  0.00  0.00  0.21  0.01  0.00  0.78  0.05  0.00
  YS02001658YS02001655    1.00   0.00  0.14  0.00  0.69  0.17  0.00  0.00  0.65  0.00
  YS02001661YS02001658    1.00   0.14  0.00  0.00  0.53  0.33  0.00  0.00  0.68  0.00
  YS02001664YS02001661    1.00   0.13  0.00  0.00  0.78  0.10  0.00  0.00  0.84  0.00
  YS02001745YS02001748    1.00   0.00  0.00  0.00  0.13  0.01  0.00  0.86  0.05  0.00
  YS02001748YS02001751    1.00   0.00  0.00  0.00  0.85  0.15  0.00  0.00  0.76  0.00
  YS02001751YS02001754    1.00   0.00  0.00  0.00  0.20  0.00  0.00  0.80  0.04  0.00
  YS02001754YS02001757    1.00   0.00  0.00  0.00  1.00  0.00  0.00  0.00  0.76  0.00
  YS02001757CaochengTiaoxuchi    1.00   0.00  0.00  0.00  1.00  0.00  0.00  0.00  0.60  0.00
  YS02001759YS02001757    1.00   0.00  0.00  0.00  0.99  0.01  0.00  0.00  0.51  0.00
  YS02001762YS02001759    1.00   0.00  0.00  0.00  1.00  0.00  0.00  0.00  0.04  0.00
  YS02001765YS02001762    1.00   0.00  0.00  0.00  1.00  0.00  0.00  0.00  0.63  0.00
  YS02001767YS02001765    1.00   0.00  0.00  0.00  1.00  0.00  0.00  0.00  0.01  0.00
  YS02001770YS02001767    1.00   0.00  0.00  0.00  1.00  0.00  0.00  0.00  0.00  0.00
  YS02001774YS02001770    1.00   0.00  0.13  0.00  0.70  0.00  0.16  0.00  0.03  0.00
  YS02001779YS02001774    1.00   0.00  0.00  0.00  1.00  0.00  0.00  0.00  0.75  0.00
  YS02001783YS02001784    1.00   0.00  0.17  0.00  0.83  0.00  0.00  0.00  0.55  0.00
  YS02001784YS02001785    1.00   0.00  0.00  0.00  1.00  0.00  0.00  0.00  0.16  0.00
  YS02001786YS02001788    1.00   0.00  0.00  0.00  0.79  0.21  0.00  0.00  0.00  0.00
  YS02001788YS02001790    1.00   0.00  0.00  0.00  0.21  0.79  0.00  0.00  0.79  0.00
  YS02001790YS02001791    1.00   0.00  0.00  0.00  0.01  0.99  0.00  0.00  0.16  0.00
  YS02001791YS02001793    1.00   0.00  0.00  0.00  0.00  1.00  0.00  0.00  0.01  0.00
  YS02001793JiankangQianchi    1.00   0.00  0.00  0.00  0.99  0.01  0.00  0.00  0.93  0.00
  YS02001882YS02001884    1.00   0.15  0.01  0.00  0.84  0.00  0.00  0.00  0.00  0.00
  YS02001884YS02001887    1.00   0.06  0.05  0.00  0.89  0.00  0.00  0.00  0.00  0.00
  YS02001887YS02001890    1.00   0.00  0.00  0.00  0.97  0.00  0.03  0.00  0.00  0.00
  YS02001890YS02001895    1.00   0.00  0.16  0.00  0.84  0.00  0.00  0.00  0.00  0.00
  YS02001895YS02001898    1.00   0.16  0.00  0.00  0.82  0.00  0.02  0.00  0.00  0.00
  YS02001898YS02001901    1.00   0.16  0.00  0.00  0.84  0.00  0.00  0.00  0.01  0.00
  YS02001901YS02001904    1.00   0.16  0.00  0.00  0.84  0.00  0.00  0.00  0.00  0.00
  YS02001904YS02001907    1.00   0.00  0.16  0.00  0.84  0.00  0.00  0.00  0.00  0.00
  YS02001907YS02006553    1.00   0.00  0.02  0.00  0.98  0.00  0.00  0.00  0.00  0.00
  YS02001910YS02001907    1.00   0.00  0.00  0.00  0.97  0.00  0.00  0.03  0.12  0.00
  YS02001915YS02001910    1.00   0.00  0.00  0.00  0.97  0.03  0.00  0.00  0.14  0.00
  YS02001918YS02001915    1.00   0.00  0.01  0.00  0.98  0.02  0.00  0.00  0.73  0.00
  YS02001920YS02001918    1.00   0.00  0.01  0.00  0.99  0.00  0.00  0.00  0.00  0.00
  YS02001923YS02001920    1.00   0.00  0.00  0.00  1.00  0.00  0.00  0.00  0.91  0.00
  YS02001926YS02001923    1.00   0.00  0.07  0.00  0.07  0.00  0.86  0.00  0.00  0.00
  YS02001929YS02001926    1.00   0.00  0.13  0.00  0.87  0.00  0.00  0.00  0.81  0.00
  YS02006553YS02006556    1.00   0.01  0.00  0.00  0.99  0.00  0.00  0.00  0.03  0.00
  YS02006556YS02006558    1.00   0.00  0.00  0.00  1.00  0.00  0.00  0.00  0.00  0.00
  YS02006558YS02006561    1.00   0.17  0.00  0.00  0.07  0.76  0.00  0.00  0.18  0.00
  YS02006561YS02001783    1.00   0.17  0.00  0.00  0.10  0.73  0.00  0.00  0.68  0.00
  YS02163301YS02001633    1.00   0.00  0.15  0.00  0.85  0.00  0.00  0.00  0.00  0.00
  YS02163601YS02164001    1.00   0.00  0.08  0.00  0.92  0.00  0.00  0.00  0.00  0.00
  YS02164001YS02001641    1.00   0.01  0.07  0.00  0.92  0.00  0.00  0.00  0.05  0.00
  
  
  *************************
  Conduit Surcharge Summary
  *************************
  
  ----------------------------------------------------------------------------
                                                           Hours        Hours 
                         --------- Hours Full --------   Above Full   Capacity
  Conduit                Both Ends  Upstream  Dnstream   Normal Flow   Limited
  ----------------------------------------------------------------------------
  WS02003072WS02003073        0.01      0.01      0.01      1.57         0.01
  WS02004404WS02004405        0.01      0.01      0.01      3.87         0.01
  WS02004405WS02004406        0.01      0.01      0.01      0.77         0.01
  WS02006109WS02006110        0.76      0.76      2.31      0.97         0.01
  WS02006110WS02006113        0.01      0.01      2.30      0.01         0.01
  WS02006111WS02006112        0.01      0.01      2.50      0.01         0.01
  WS02006112WS02006115        0.01      0.01      0.89      0.01         0.01
  WS02006228WS02006109        2.29      2.31      2.29      2.72         2.29
  WS02006229WS02006228        2.28      2.29      2.28      2.44         2.27
  WS02006230WS02006229        2.36      2.42      2.36      4.84         2.36
  WS02006231WS02006230        0.78      0.78      1.11      4.34         0.01
  WS02006232WS02006231        1.01      1.01      2.31      1.13         0.01
  WS02006234WS02006232        2.20      2.20      2.31      1.10         1.08
  WS02006235WS02006234        1.57      1.58      2.22      4.10         0.03
  WS02006238WS02006235        2.25      2.25      2.31      0.01         0.01
  WS02006239WS02006238        2.28      2.30      2.28      2.33         2.00
  WS02006240WS02006239        2.25      2.29      2.25      2.34         1.89
  WS02006242WS02006240        2.28      2.28      2.31      2.49         0.01
  WS02006243WS02006242        2.28      2.28      2.30      0.01         0.08
  WS02006245WS02006243        2.28      2.28      2.28      1.53         1.47
  WS02006247WS02006245        2.27      2.28      2.27      3.92         2.25
  WS02006248WS02006247        2.27      2.27      2.27      0.01         0.09
  WS02006249WS02006248        2.26      2.26      2.26      3.87         0.01
  WS02006251WS02006249        2.26      2.26      2.26      2.43         2.14
  WS02006252WS02006251        2.49      2.49      2.50      2.50         0.01
  WS02006256WS02006235        4.15      4.20      6.44      1.39         0.01
  YS02001580YS02001583        0.72      0.72      0.79      0.01         0.01
  YS02001583YS02001586        0.73      0.73      0.90      0.01         0.01
  YS02001586YS02001590        0.90      0.90      0.98      0.01         0.01
  YS02001590YS02001593        0.98      0.98      1.00      1.04         0.01
  YS02001593YS02001596        0.99      0.99      1.10      0.01         0.01
  YS02001596YS02001600        1.15      1.15      1.27      0.01         0.01
  YS02001600YS02001601        1.33      1.33      1.59      0.01         0.01
  YS02001601YS02001602        1.50      1.50      1.62      1.25         0.01
  YS02001602YS02001605        1.46      1.46      1.50      2.32         0.01
  YS02001605YS02001607        1.43      1.46      1.43      1.56         1.43
  YS02001607YS02001610        0.98      0.98      1.01      0.01         0.01
  YS02001610YS02001613        0.97      0.97      1.01      0.01         0.01
  YS02001613YS02001616        0.93      0.93      0.97      0.01         0.01
  YS02001616YS02001619        0.92      0.92      0.93      0.01         0.03
  YS02001619YS02001622        0.91      0.92      0.92      0.93         0.84
  YS02001622YS02001625        0.92      0.92      1.11      0.01         0.01
  YS02001625YS02001629        0.86      0.86      1.11      0.01         0.01
  YS02001629YS02163301        1.11      1.11      1.13      0.04         0.12
  YS02001633YS02163601        1.15      1.15      1.19      0.28         0.27
  YS02001641YS02001644        1.08      1.10      1.08      1.64         1.05
  YS02001644YS02001647        0.86      0.86      1.08      0.03         0.01
  YS02001647YS02001649        0.86      0.86      1.02      0.01         0.01
  YS02001649YS02001757        1.01      1.02      1.10      0.05         0.03
  YS02001652YS02001649        0.82      0.82      1.02      0.01         0.01
  YS02001655YS02001652        0.58      0.58      0.80      0.01         0.01
  YS02001658YS02001655        0.30      0.30      0.58      0.01         0.01
  YS02001661YS02001658        0.07      0.07      0.30      0.01         0.01
  YS02001664YS02001661        0.01      0.01      0.13      0.01         0.01
  YS02001745YS02001748        0.01      0.01      0.23      0.01         0.01
  YS02001748YS02001751        0.27      0.27      0.43      0.01         0.01
  YS02001751YS02001754        0.43      0.43      0.69      0.01         0.01
  YS02001754YS02001757        0.75      0.75      1.10      0.01         0.01
  YS02001757CaochengTiaoxuchi        1.09      1.10      2.25      0.40         0.38
  YS02001759YS02001757        1.00      1.00      1.10      0.01         0.02
  YS02001762YS02001759        0.96      0.96      1.00      0.01         0.02
  YS02001765YS02001762        0.91      0.91      0.96      0.01         0.01
  YS02001767YS02001765        0.87      0.87      0.91      0.01         0.02
  YS02001770YS02001767        0.87      0.87      0.87      0.62         0.58
  YS02001774YS02001770        0.83      0.83      0.94      0.01         0.01
  YS02001779YS02001774        0.68      0.68      0.94      0.01         0.01
  YS02001783YS02001784        0.60      0.62      0.60      0.78         0.60
  YS02001784YS02001785        0.49      0.60      0.49      1.04         0.49
  YS02001786YS02001788        0.01      0.49      0.01      0.89         0.01
  YS02001790YS02001791        0.01      0.01      0.01      0.59         0.01
  YS02001793JiankangQianchi        0.01      0.01      7.70      0.01         0.01
  YS02001882YS02001884        0.57      0.57      0.58      0.01         0.01
  YS02001884YS02001887        0.60      0.60      0.62      0.01         0.01
  YS02001887YS02001890        0.63      0.63      0.64      0.15         0.01
  YS02001890YS02001895        0.55      0.55      0.66      0.01         0.01
  YS02001895YS02001898        0.55      0.55      0.55      0.01         0.01
  YS02001898YS02001901        0.56      0.56      0.60      0.01         0.01
  YS02001901YS02001904        0.59      0.59      0.60      0.01         0.01
  YS02001904YS02001907        0.59      0.59      0.87      0.01         0.01
  YS02001907YS02006553        1.06      1.06      1.14      0.01         0.01
  YS02001910YS02001907        0.66      0.66      0.84      0.01         0.01
  YS02001915YS02001910        0.56      0.56      0.66      0.01         0.01
  YS02001918YS02001915        0.48      0.48      0.56      0.01         0.01
  YS02001920YS02001918        0.48      0.48      0.49      0.01         0.01
  YS02001923YS02001920        0.43      0.43      0.49      0.01         0.01
  YS02001926YS02001923        0.15      0.15      0.17      0.01         0.01
  YS02001929YS02001926        0.01      0.01      0.17      0.01         0.01
  YS02006553YS02006556        0.75      0.75      0.87      0.01         0.01
  YS02006556YS02006558        0.81      0.81      0.89      0.01         0.01
  YS02006558YS02006561        0.52      0.74      0.52      0.99         0.52
  YS02006561YS02001783        0.44      0.44      0.62      0.01         0.01
  YS02163301YS02001633        1.13      1.13      1.17      0.01         0.01
  YS02163601YS02164001        1.10      1.10      1.19      0.05         0.01
  YS02164001YS02001641        1.10      1.10      1.10      0.75         0.70
  
  
  ***************
  Pumping Summary
  ***************
  
  ---------------------------------------------------------------------------------------------------------
                                                  Min       Avg       Max     Total     Power    % Time Off
                        Percent   Number of      Flow      Flow      Flow    Volume     Usage    Pump Curve
  Pump                 Utilized   Start-Ups       LPS       LPS       LPS  10^6 ltr     Kw-hr    Low   High
  ---------------------------------------------------------------------------------------------------------
  CC-R1                   19.99           2      0.00    683.00    683.00     3.933     75.27    0.0    5.2
  CC-R2                   15.96           2      0.00    683.00    683.00     3.139     60.58    0.0    6.5
  CC-S1                   45.92           5      0.00    200.00    200.00     2.645     14.96    0.0    0.0
  CC-S2                   35.33           5      0.00    200.00    200.00     2.035     11.34    0.0    0.0
  JK-R1                    9.92          15      0.00   1000.00   1000.00     2.857     34.20    0.0    0.0
  JK-R2                    0.16           1      0.00   1000.00   1000.00     0.047      0.36    0.0    0.0
  JK-S                    17.38          25      0.00    300.00    300.00     1.502     19.86    0.0    0.0
  

  Analysis begun on:  Wed Apr 23 23:54:30 2025
  Analysis ended on:  Wed Apr 23 23:54:32 2025
  Total elapsed time: 00:00:02