
  EPA STORM WATER MANAGEMENT MODEL - VERSION 5.2 (Build 5.2.4)
  PYSWMM TOOLKIT API - VERSION v1.0 (2023-11-27)
  ------------------------------------------------------------

  WARNING 04: minimum elevation drop used for Conduit WS02004404WS02004405
  WARNING 03: negative offset ignored for Link YS02001904YS02001907
  
  ****************
  Analysis Options
  ****************
  Flow Units ............... LPS
  Process Models:
    Rainfall/Runoff ........ YES
    RDII ................... NO
    Snowmelt ............... NO
    Groundwater ............ NO
    Flow Routing ........... YES
    Ponding Allowed ........ NO
    Water Quality .......... NO
  Infiltration Method ...... HORTON
  Flow Routing Method ...... DYNWAVE
  Surcharge Method ......... EXTRAN
  Starting Date ............ 08/28/2015 08:00:00
  Ending Date .............. 08/28/2015 16:00:00
  Antecedent Dry Days ...... 8.0
  Report Time Step ......... 00:01:00
  Wet Time Step ............ 00:01:00
  Dry Time Step ............ 00:01:00
  Routing Time Step ........ 30.00 sec
  Variable Time Step ....... YES
  Maximum Trials ........... 8
  Number of Threads ........ 4
  Head Tolerance ........... 0.001500 m
  
  
  **************************        Volume         Depth
  Runoff Quantity Continuity     hectare-m            mm
  **************************     ---------       -------
  Total Precipitation ......         2.598        78.315
  Evaporation Loss .........         0.000         0.000
  Infiltration Loss ........         0.100         3.020
  Surface Runoff ...........         2.465        74.321
  Final Storage ............         0.033         0.994
  Continuity Error (%) .....        -0.025
  
  
  **************************        Volume        Volume
  Flow Routing Continuity        hectare-m      10^6 ltr
  **************************     ---------     ---------
  Dry Weather Inflow .......         0.025         0.251
  Wet Weather Inflow .......         2.465        24.654
  Groundwater Inflow .......         0.000         0.000
  RDII Inflow ..............         0.000         0.000
  External Inflow ..........         0.083         0.834
  External Outflow .........         1.672        16.722
  Flooding Loss ............         0.903         9.029
  Evaporation Loss .........         0.000         0.000
  Exfiltration Loss ........         0.000         0.000
  Initial Stored Volume ....         0.243         2.431
  Final Stored Volume ......         0.246         2.457
  Continuity Error (%) .....        -0.138
  
  
  *************************
  Highest Continuity Errors
  *************************
  Node YS02001583 (-12.53%)
  Node YS02001884 (5.10%)
  
  
  ***************************
  Time-Step Critical Elements
  ***************************
  Link WS02006252WS02006251 (52.06%)
  Link WS02006238WS02006235 (11.62%)
  Link WS02003066WSF200 (10.25%)
  Link YS02001791YS02001793 (6.33%)
  Link WS02004404WS02004405 (5.65%)
  
  
  ********************************
  Highest Flow Instability Indexes
  ********************************
  Link WS02006113WS02006111 (41)
  Link WS02006111WS02006112 (21)
  Link WS02006252WS02006251 (15)
  Link WS02006256WS02006235 (14)
  Link WS02006238WS02006235 (13)
  
  
  *********************************
  Most Frequent Nonconverging Nodes
  *********************************
  Node CC-1 (13.59%)
  Node CC-2 (13.59%)
  Node JK-1 (13.59%)
  Node JK-2 (13.59%)
  Node WSC (13.59%)
  
  
  *************************
  Routing Time Step Summary
  *************************
  Minimum Time Step           :     0.01 sec
  Average Time Step           :     1.69 sec
  Maximum Time Step           :     6.43 sec
  % of Time in Steady State   :     0.00
  Average Iterations per Step :     3.12
  % of Steps Not Converging   :    13.59
  Time Step Frequencies       :
     30.000 - 13.228 sec      :     0.00 %
     13.228 -  5.833 sec      :     1.83 %
      5.833 -  2.572 sec      :    20.39 %
      2.572 -  1.134 sec      :    20.11 %
      1.134 -  0.500 sec      :    57.67 %
  
  
  ***************************
  Subcatchment Runoff Summary
  ***************************
  
  ------------------------------------------------------------------------------------------------------------------------------
                            Total      Total      Total      Total     Imperv       Perv      Total       Total     Peak  Runoff
                           Precip      Runon       Evap      Infil     Runoff     Runoff     Runoff      Runoff   Runoff   Coeff
  Subcatchment                 mm         mm         mm         mm         mm         mm         mm    10^6 ltr      LPS
  ------------------------------------------------------------------------------------------------------------------------------
  sub60                     78.32       0.00       0.00       1.84      67.72       7.57      75.29        0.99   618.33   0.961
  sub61                     78.32       0.00       0.00       2.66      63.88      10.66      74.54        1.37   853.79   0.952
  sub62                     78.32       0.00       0.00       1.22      70.77       5.05      75.81        2.08  1199.41   0.968
  sub63                     78.32       0.00       0.00       4.87      54.64      17.85      72.49        1.65   940.61   0.926
  sub64                     78.32       0.00       0.00       2.46      65.37       9.29      74.65        1.79   971.31   0.953
  sub65                     78.32       0.00       0.00       2.13      66.89       8.05      74.94        2.06  1082.53   0.957
  sub66                     78.32       0.00       0.00       5.97      54.53      16.75      71.28        3.32  1400.33   0.910
  sub67                     78.32       0.00       0.00       1.18      70.81       5.09      75.90        1.41   936.48   0.969
  sub68                     78.32       0.00       0.00       2.20      66.17       8.77      74.94        2.06  1231.16   0.957
  sub69                     78.32       0.00       0.00       1.95      66.46       9.80      76.26        2.82  1447.68   0.974
  sub70                     78.32       0.00       0.00       6.43      51.53      20.20      71.72        2.07   789.18   0.916
  sub71                     78.32       0.00       0.00       1.25      70.73       5.02      75.74        1.98  1053.08   0.967
  sub72                     78.32       0.00       0.00       1.11      71.44       4.37      75.81        1.04   506.64   0.968
  
  
  ******************
  Node Depth Summary
  ******************
  
  ---------------------------------------------------------------------------------
                                 Average  Maximum  Maximum  Time of Max    Reported
                                   Depth    Depth      HGL   Occurrence   Max Depth
  Node                 Type       Meters   Meters   Meters  days hr:min      Meters
  ---------------------------------------------------------------------------------
  WS02003060           JUNCTION     0.23     0.38     5.31     0  02:11        0.38
  WS02003066           JUNCTION     0.19     0.30     5.85     0  02:13        0.30
  WS02003067           JUNCTION     0.49     0.70     6.02     0  02:13        0.70
  WS02003069           JUNCTION     0.25     0.43     5.01     0  02:09        0.43
  WS02003072           JUNCTION     0.32     0.50     4.87     0  02:09        0.50
  WS02003073           JUNCTION     0.18     0.30     4.36     0  02:10        0.30
  WS02004401           JUNCTION     0.57     0.85     6.85     0  02:00        0.85
  WS02004402           JUNCTION     0.60     0.87     6.83     0  02:11        0.87
  WS02004403           JUNCTION     0.62     0.89     6.82     0  02:11        0.89
  WS02004404           JUNCTION     0.70     0.96     6.81     0  02:11        0.96
  WS02004405           JUNCTION     0.69     0.95     6.80     0  02:11        0.95
  WS02004406           JUNCTION     0.70     0.96     6.79     0  03:03        0.95
  WS02004407           JUNCTION     0.17     0.29     6.61     0  02:11        0.29
  WS02004409           JUNCTION     0.37     0.66     6.43     0  02:12        0.66
  WS02004410           JUNCTION     0.40     0.68     6.40     0  02:12        0.68
  WS02004411           JUNCTION     0.42     0.69     6.37     0  02:12        0.69
  WS02004412           JUNCTION     0.44     0.70     6.34     0  02:07        0.69
  WS02004413           JUNCTION     0.60     0.85     6.32     0  02:12        0.85
  WS02006109           JUNCTION     0.64     1.38     8.00     0  02:32        1.11
  WS02006110           JUNCTION     0.64     1.50     8.08     0  02:32        1.07
  WS02006111           JUNCTION     0.17     0.29     6.99     0  02:43        0.29
  WS02006112           JUNCTION     0.73     1.10     6.98     0  02:23        1.07
  WS02006113           JUNCTION     0.26     0.46     7.35     0  01:57        0.46
  WS02006115           JUNCTION     0.45     0.75     6.89     0  02:10        0.75
  WS02006116           JUNCTION     0.54     0.83     6.87     0  02:10        0.83
  WS02006228           JUNCTION     0.63     1.27     7.92     0  02:32        1.11
  WS02006229           JUNCTION     0.60     1.22     7.91     0  02:32        1.13
  WS02006230           JUNCTION     0.60     1.39     8.13     0  02:32        1.26
  WS02006231           JUNCTION     0.41     1.31     8.44     0  02:00        1.01
  WS02006232           JUNCTION     0.55     1.35     8.39     0  01:45        1.19
  WS02006234           JUNCTION     0.47     1.45     8.60     0  01:45        1.16
  WS02006235           JUNCTION     0.51     1.48     8.64     0  01:50        1.33
  WS02006238           JUNCTION     0.54     1.53     8.67     0  01:50        1.38
  WS02006239           JUNCTION     0.51     1.49     8.70     0  01:50        1.43
  WS02006240           JUNCTION     0.48     1.45     8.75     0  01:50        1.43
  WS02006242           JUNCTION     0.55     1.55     8.82     0  02:17        1.55
  WS02006243           JUNCTION     0.46     1.48     8.90     0  02:17        1.48
  WS02006245           JUNCTION     0.46     1.48     8.96     0  02:17        1.48
  WS02006247           JUNCTION     0.49     1.39     8.89     0  02:17        1.39
  WS02006248           JUNCTION     0.45     1.10     8.69     0  01:43        1.10
  WS02006249           JUNCTION     0.49     1.09     8.69     0  01:42        1.09
  WS02006251           JUNCTION     0.48     1.58     9.25     0  02:22        1.27
  WS02006252           JUNCTION     0.36     1.50     9.74     0  00:00        0.82
  WS02006256           JUNCTION     0.98     2.35     9.28     0  00:00        2.35
  WSF200               JUNCTION     0.16     0.29     5.52     0  02:10        0.29
  YS02001580           JUNCTION     0.09     1.05     9.59     0  01:33        0.77
  YS02001583           JUNCTION     0.13     1.14     9.64     0  01:34        0.83
  YS02001586           JUNCTION     0.19     1.13     9.30     0  01:34        1.13
  YS02001590           JUNCTION     0.28     1.40     9.26     0  01:34        1.38
  YS02001593           JUNCTION     0.21     1.37     9.23     0  01:34        1.30
  YS02001596           JUNCTION     0.29     1.71     9.13     0  01:34        1.68
  YS02001600           JUNCTION     0.34     1.87     9.00     0  01:34        1.87
  YS02001601           JUNCTION     0.51     2.06     8.90     0  01:33        2.06
  YS02001602           JUNCTION     0.43     1.87     8.77     0  01:34        1.87
  YS02001605           JUNCTION     0.40     1.78     8.68     0  01:34        1.78
  YS02001607           JUNCTION     0.41     1.65     8.50     0  02:16        1.65
  YS02001610           JUNCTION     0.45     1.68     8.48     0  01:34        1.68
  YS02001613           JUNCTION     0.41     1.70     8.54     0  01:34        1.68
  YS02001616           JUNCTION     0.34     1.61     8.52     0  01:34        1.61
  YS02001619           JUNCTION     0.32     1.61     8.54     0  01:34        1.61
  YS02001622           JUNCTION     0.31     1.62     8.52     0  01:34        1.58
  YS02001625           JUNCTION     0.58     1.78     8.38     0  01:34        1.78
  YS02001629           JUNCTION     0.42     1.85     8.40     0  01:34        1.85
  YS02001633           JUNCTION     0.50     2.08     8.53     0  01:36        2.08
  YS02001641           JUNCTION     0.49     2.07     8.50     0  01:36        2.07
  YS02001644           JUNCTION     0.49     1.92     8.35     0  01:35        1.92
  YS02001647           JUNCTION     0.29     1.90     8.51     0  02:17        1.90
  YS02001649           JUNCTION     0.34     2.05     8.44     0  01:36        2.05
  YS02001652           JUNCTION     0.24     2.16     8.76     0  01:35        2.16
  YS02001655           JUNCTION     0.20     2.20     9.05     0  01:36        1.92
  YS02001658           JUNCTION     0.14     2.30     9.44     0  01:36        1.39
  YS02001661           JUNCTION     0.16     2.46     9.86     0  01:36        1.13
  YS02001664           JUNCTION     0.05     2.31    10.23     0  01:37        0.56
  YS02001745           JUNCTION     0.07     2.35     9.87     0  01:36        1.00
  YS02001748           JUNCTION     0.13     2.27     9.35     0  01:36        1.38
  YS02001751           JUNCTION     0.17     2.20     9.08     0  01:36        1.53
  YS02001754           JUNCTION     0.22     2.20     8.81     0  01:36        1.82
  YS02001757           JUNCTION     0.37     2.21     8.47     0  01:36        2.11
  YS02001759           JUNCTION     0.31     2.21     8.57     0  01:36        2.05
  YS02001762           JUNCTION     0.30     2.15     8.55     0  01:36        2.02
  YS02001765           JUNCTION     0.29     2.10     8.55     0  01:36        1.97
  YS02001767           JUNCTION     0.28     2.03     8.52     0  01:35        1.94
  YS02001770           JUNCTION     0.29     1.95     8.44     0  01:35        1.95
  YS02001774           JUNCTION     0.36     2.05     8.47     0  01:35        1.99
  YS02001779           JUNCTION     0.21     1.68     8.37     0  01:35        1.68
  YS02001783           JUNCTION     0.22     1.32     7.46     0  01:35        1.24
  YS02001784           JUNCTION     0.23     1.20     7.27     0  01:35        1.12
  YS02001786           JUNCTION     0.19     0.99     7.02     0  01:35        0.87
  YS02001788           JUNCTION     0.14     0.62     6.60     0  01:35        0.62
  YS02001790           JUNCTION     0.16     0.73     6.37     0  01:40        0.72
  YS02001791           JUNCTION     0.10     0.44     5.91     0  01:48        0.43
  YS02001793           JUNCTION     0.06     0.30     5.13     0  01:50        0.29
  YS02001882           JUNCTION     0.29     1.73     8.45     0  01:34        1.69
  YS02001884           JUNCTION     0.38     1.81     8.43     0  01:34        1.78
  YS02001887           JUNCTION     0.45     1.88     8.41     0  01:36        1.88
  YS02001890           JUNCTION     0.48     1.81     8.32     0  01:34        1.81
  YS02001895           JUNCTION     0.25     1.64     8.39     0  01:35        1.58
  YS02001898           JUNCTION     0.26     1.69     8.42     0  01:35        1.60
  YS02001901           JUNCTION     0.38     1.77     8.38     0  01:35        1.71
  YS02001904           JUNCTION     0.36     1.69     8.32     0  01:35        1.64
  YS02001907           JUNCTION     0.67     1.96     8.25     0  01:35        1.96
  YS02001910           JUNCTION     0.48     2.04     8.54     0  01:35        2.02
  YS02001915           JUNCTION     0.29     2.00     8.72     0  01:40        2.00
  YS02001918           JUNCTION     0.16     1.81     8.88     0  01:35        1.81
  YS02001920           JUNCTION     0.24     2.14     9.15     0  01:36        1.82
  YS02001923           JUNCTION     0.13     2.03     9.29     0  01:36        1.34
  YS02001926           JUNCTION     0.16     1.90     9.35     0  01:35        1.16
  YS02001929           JUNCTION     0.09     1.78     9.47     0  01:35        1.78
  YS02006553           JUNCTION     0.68     2.01     8.30     0  01:35        1.98
  YS02006556           JUNCTION     0.65     2.03     8.34     0  01:35        1.99
  YS02006558           JUNCTION     0.69     2.07     8.34     0  01:36        2.07
  YS02006561           JUNCTION     0.14     1.01     7.67     0  01:35        0.90
  YS02163301           JUNCTION     0.45     1.97     8.48     0  01:40        1.97
  YS02163601           JUNCTION     0.54     2.08     8.48     0  01:36        2.08
  YS02164001           JUNCTION     0.48     2.09     8.55     0  01:36        2.09
  CC-1                 OUTFALL      0.00     0.00     0.00     0  00:00        0.00
  CC-2                 OUTFALL      0.00     0.00     0.00     0  00:00        0.00
  JK-1                 OUTFALL      0.00     0.00     0.00     0  00:00        0.00
  JK-2                 OUTFALL      0.00     0.00     0.00     0  00:00        0.00
  WSC                  OUTFALL      0.18     0.30     0.97     0  02:10        0.30
  CC-storage           STORAGE      0.95     1.78     7.28     0  02:18        1.78
  JK-storage           STORAGE      3.12     4.23     5.03     0  01:55        4.18
  
  
  *******************
  Node Inflow Summary
  *******************
  
  -------------------------------------------------------------------------------------------------
                                  Maximum  Maximum                  Lateral       Total        Flow
                                  Lateral    Total  Time of Max      Inflow      Inflow     Balance
                                   Inflow   Inflow   Occurrence      Volume      Volume       Error
  Node                 Type           LPS      LPS  days hr:min    10^6 ltr    10^6 ltr     Percent
  -------------------------------------------------------------------------------------------------
  WS02003060           JUNCTION     16.53   549.29     0  02:13       0.476        6.27       0.063
  WS02003066           JUNCTION      0.00   532.42     0  02:13           0         5.8       0.037
  WS02003067           JUNCTION      0.00   532.34     0  02:12           0         5.8       0.087
  WS02003069           JUNCTION      0.32   549.17     0  02:13     0.00922        6.28       0.112
  WS02003072           JUNCTION      0.00   548.69     0  02:09           0        6.27       0.183
  WS02003073           JUNCTION      1.82   550.66     0  02:09      0.0524        6.31       0.169
  WS02004401           JUNCTION      0.00   540.94     0  03:02           0        5.92       0.193
  WS02004402           JUNCTION      0.00   538.85     0  03:02           0        5.91       0.193
  WS02004403           JUNCTION      0.00   538.62     0  03:03           0         5.9       0.187
  WS02004404           JUNCTION      0.16   536.47     0  03:03     0.00467        5.89       0.161
  WS02004405           JUNCTION      0.04   536.57     0  03:03      0.0011        5.89       0.220
  WS02004406           JUNCTION      0.00   536.59     0  03:03           0        5.87       0.381
  WS02004407           JUNCTION      0.00   534.98     0  02:11           0        5.85       0.031
  WS02004409           JUNCTION      0.00   534.74     0  02:11           0        5.85       0.078
  WS02004410           JUNCTION      0.00   533.57     0  02:06           0        5.84       0.115
  WS02004411           JUNCTION      0.00   533.29     0  02:12           0        5.84       0.135
  WS02004412           JUNCTION      0.00   532.56     0  02:12           0        5.83       0.168
  WS02004413           JUNCTION      0.00   532.72     0  02:12           0        5.82       0.292
  WS02006109           JUNCTION      1.23   557.28     0  02:32      0.0354        5.97       0.132
  WS02006110           JUNCTION      0.00   557.68     0  02:32           0        5.97       0.131
  WS02006111           JUNCTION      0.00   562.00     0  01:58           0        5.96       0.013
  WS02006112           JUNCTION      0.00   543.60     0  02:43           0        5.96       0.360
  WS02006113           JUNCTION      0.00   572.16     0  02:32           0        5.96       0.040
  WS02006115           JUNCTION      0.00   555.61     0  03:19           0        5.93       0.139
  WS02006116           JUNCTION      0.00   540.55     0  02:13           0        5.93       0.051
  WS02006228           JUNCTION      0.00   556.23     0  02:32           0        5.94       0.037
  WS02006229           JUNCTION      0.00   556.09     0  02:32           0        5.95       0.128
  WS02006230           JUNCTION     10.28   596.01     0  03:00       0.296        5.95       0.027
  WS02006231           JUNCTION      0.00   581.57     0  02:28           0        5.65      -0.074
  WS02006232           JUNCTION      0.00   580.42     0  02:28           0        5.67       0.310
  WS02006234           JUNCTION      0.00   574.35     0  02:28           0        5.66      -0.211
  WS02006235           JUNCTION      0.00   572.32     0  02:17           0         5.7       0.205
  WS02006238           JUNCTION      0.00   424.59     0  02:35           0         4.6      -0.203
  WS02006239           JUNCTION      0.00   423.62     0  02:20           0        4.57      -0.252
  WS02006240           JUNCTION      0.00   420.59     0  02:30           0        4.55      -0.058
  WS02006242           JUNCTION      0.00   420.88     0  02:30           0        4.54       0.068
  WS02006243           JUNCTION      0.00   420.49     0  02:30           0        4.54       0.053
  WS02006245           JUNCTION      0.00   420.28     0  02:20           0        4.55       0.439
  WS02006247           JUNCTION      0.00   420.12     0  02:20           0        4.56       0.035
  WS02006248           JUNCTION      0.00   421.27     0  02:35           0        4.56       0.104
  WS02006249           JUNCTION      0.00   459.02     0  00:00           0        4.86       0.393
  WS02006251           JUNCTION      0.08   404.62     0  03:06     0.00222        4.86      -0.035
  WS02006252           JUNCTION      0.00   400.00     0  00:00           0        4.85      -0.041
  WS02006256           JUNCTION      0.00   300.00     0  00:00           0        1.65      -0.728
  WSF200               JUNCTION      0.00   532.48     0  02:13           0         5.8       0.018
  YS02001580           JUNCTION      0.00   172.99     0  01:33           0     0.00439      -3.866
  YS02001583           JUNCTION      0.00   254.72     0  01:34           0      0.0148     -11.132
  YS02001586           JUNCTION    789.18   789.20     0  01:43        2.07        2.08       0.083
  YS02001590           JUNCTION      0.00   318.14     0  01:40           0        1.52      -0.025
  YS02001593           JUNCTION      0.00   318.26     0  01:44           0        1.52       0.010
  YS02001596           JUNCTION      0.00   318.30     0  01:44           0        1.52      -0.005
  YS02001600           JUNCTION      0.00   318.15     0  01:40           0        1.52       0.004
  YS02001601           JUNCTION   1447.68  1766.27     0  01:40        2.82        4.35       0.012
  YS02001602           JUNCTION      0.00   579.38     0  01:33           0        2.49       0.020
  YS02001605           JUNCTION      0.00   579.13     0  01:33           0        2.32       0.014
  YS02001607           JUNCTION      0.00   578.96     0  01:33           0        2.32       0.079
  YS02001610           JUNCTION      0.00   781.20     0  01:42           0        2.68       0.081
  YS02001613           JUNCTION      0.00   517.10     0  01:33           0        2.05       0.083
  YS02001616           JUNCTION      0.00   508.43     0  01:33           0        2.05       0.023
  YS02001619           JUNCTION   1400.33  1400.33     0  01:42        3.32        5.02      -0.000
  YS02001622           JUNCTION      0.00   961.42     0  01:40           0        4.66      -0.007
  YS02001625           JUNCTION      0.00  1376.76     0  01:43           0        4.94       0.177
  YS02001629           JUNCTION      0.00   891.59     0  01:34           0        3.65      -0.014
  YS02001633           JUNCTION   1082.73  1420.59     0  01:35        2.07        5.35       0.064
  YS02001641           JUNCTION      0.00  1414.35     0  01:35           0        4.99       0.055
  YS02001644           JUNCTION    971.35  1934.88     0  01:35        1.79        6.78       0.041
  YS02001647           JUNCTION      0.00  1937.49     0  01:35           0        6.15      -0.002
  YS02001649           JUNCTION      0.00  2197.35     0  01:35           0         7.8      -0.001
  YS02001652           JUNCTION      0.00  1059.11     0  01:37           0        1.65      -0.122
  YS02001655           JUNCTION      0.15  1058.63     0  01:37     0.00443        1.65      -0.088
  YS02001658           JUNCTION      0.00  1057.95     0  01:37           0        1.65      -0.071
  YS02001661           JUNCTION      0.00  1058.99     0  01:37           0        1.65       0.024
  YS02001664           JUNCTION    940.61   940.61     0  01:39        1.65        1.65      -0.016
  YS02001745           JUNCTION    618.34   778.86     0  01:36       0.989       0.994       0.235
  YS02001748           JUNCTION      0.04   926.14     0  01:36      0.0013       0.998      -0.411
  YS02001751           JUNCTION      0.01   665.83     0  01:37    0.000317           1       0.047
  YS02001754           JUNCTION      0.26   665.56     0  01:37     0.00749        1.02      -0.234
  YS02001757           JUNCTION      0.00  3583.70     0  01:37           0        11.9       0.034
  YS02001759           JUNCTION    853.83  1526.89     0  01:36        1.37        3.14      -0.019
  YS02001762           JUNCTION      0.00   779.59     0  01:36           0        1.77      -0.025
  YS02001765           JUNCTION      0.00   781.80     0  01:36           0        1.77      -0.009
  YS02001767           JUNCTION      0.54   782.69     0  01:36      0.0154        1.77      -0.004
  YS02001770           JUNCTION   1199.56  1199.56     0  01:39        2.08        2.13      -0.040
  YS02001774           JUNCTION      0.00   659.15     0  01:35           0       0.394       0.215
  YS02001779           JUNCTION      0.01   665.65     0  01:35    0.000144       0.347      -0.320
  YS02001783           JUNCTION      0.00  1169.11     0  01:37           0        4.59       0.005
  YS02001784           JUNCTION      1.06  1170.43     0  01:37      0.0305        4.62       0.011
  YS02001786           JUNCTION      0.06  1170.26     0  01:37     0.00162        4.62       0.015
  YS02001788           JUNCTION      0.07  1170.33     0  01:36     0.00204        4.62       0.006
  YS02001790           JUNCTION      0.15  1177.47     0  01:35     0.00446        4.63       0.020
  YS02001791           JUNCTION      0.00  1289.10     0  01:40           0        4.63      -0.027
  YS02001793           JUNCTION      0.00  1254.13     0  01:40           0        4.63       0.005
  YS02001882           JUNCTION      0.00    78.67     0  01:34           0      0.0133       6.190
  YS02001884           JUNCTION      0.00   142.82     0  01:34           0      0.0496       5.371
  YS02001887           JUNCTION    936.93   937.34     0  01:38        1.42        1.46       0.315
  YS02001890           JUNCTION      0.00   937.23     0  01:38           0        1.42       0.353
  YS02001895           JUNCTION      0.00   603.94     0  01:35           0        1.24       0.122
  YS02001898           JUNCTION      0.00   606.83     0  01:35           0        1.24      -0.004
  YS02001901           JUNCTION      0.00   609.94     0  01:35           0        1.25       0.274
  YS02001904           JUNCTION      0.00   610.99     0  01:35           0        1.25       0.228
  YS02001907           JUNCTION      0.00  2136.81     0  01:40           0        4.36       0.392
  YS02001910           JUNCTION      0.00  1573.10     0  01:40           0         3.1       0.235
  YS02001915           JUNCTION   1053.10  1572.20     0  01:40        1.98        3.16       0.052
  YS02001918           JUNCTION      0.00   744.11     0  01:35           0        1.21      -0.018
  YS02001920           JUNCTION      2.87   706.79     0  01:35      0.0827        1.19       0.080
  YS02001923           JUNCTION      0.04   972.00     0  01:35     0.00109        1.09      -0.092
  YS02001926           JUNCTION      0.05  1227.92     0  01:35      0.0015        1.07      -0.063
  YS02001929           JUNCTION    506.64   890.95     0  01:35        1.04        1.05      -0.019
  YS02006553           JUNCTION      0.00   793.67     0  02:03           0        2.58       0.468
  YS02006556           JUNCTION      0.00   793.09     0  02:03           0        2.59       0.312
  YS02006558           JUNCTION   1232.04  1232.04     0  01:39        2.09        4.64       0.085
  YS02006561           JUNCTION      0.00  1174.40     0  01:34           0        4.59      -0.002
  YS02163301           JUNCTION      0.00   877.72     0  01:34           0        3.64       0.042
  YS02163601           JUNCTION      0.11  1419.51     0  01:35     0.00317        4.99       0.097
  YS02164001           JUNCTION      0.00  1417.81     0  01:35           0        4.99       0.050
  CC-1                 OUTFALL       0.00   683.00     0  00:00           0        4.24       0.000
  CC-2                 OUTFALL       0.00   683.00     0  00:00           0        3.23       0.000
  JK-1                 OUTFALL       0.00  1000.00     0  00:00           0         2.9       0.000
  JK-2                 OUTFALL       0.00  1000.00     0  00:00           0      0.0484       0.000
  WSC                  OUTFALL       0.00   550.43     0  02:10           0         6.3       0.000
  CC-storage           STORAGE       0.00  3583.92     0  01:37           0        14.2      -0.143
  JK-storage           STORAGE       0.00  1235.27     0  01:39           0        4.78       0.088
  
  
  **********************
  Node Surcharge Summary
  **********************
  
  Surcharging occurs when water rises above the top of the highest conduit.
  ---------------------------------------------------------------------
                                               Max. Height   Min. Depth
                                   Hours       Above Crown    Below Rim
  Node                 Type      Surcharged         Meters       Meters
  ---------------------------------------------------------------------
  WS02006109           JUNCTION        2.24          0.561        1.259
  WS02006110           JUNCTION        0.85          0.589        1.261
  WS02006112           JUNCTION        1.03          0.097        1.583
  WS02006228           JUNCTION        2.23          0.440        1.760
  WS02006229           JUNCTION        2.24          0.415        2.035
  WS02006230           JUNCTION        0.88          0.307        1.263
  WS02006231           JUNCTION        1.14          0.603        0.927
  WS02006232           JUNCTION        2.31          0.647        0.833
  WS02006234           JUNCTION        1.66          0.725        0.515
  WS02006235           JUNCTION        2.19          0.770        0.520
  WS02006238           JUNCTION        2.27          0.805        0.625
  WS02006239           JUNCTION        2.20          0.751        0.539
  WS02006240           JUNCTION        2.23          0.745        0.645
  WS02006242           JUNCTION        2.27          0.820        0.000
  WS02006243           JUNCTION        2.23          0.770        0.000
  WS02006245           JUNCTION        2.22          0.766        0.084
  WS02006247           JUNCTION        2.22          0.678        0.082
  WS02006248           JUNCTION        2.21          0.380        0.000
  WS02006249           JUNCTION        2.21          0.390        0.000
  WS02006251           JUNCTION        1.27          0.554        0.626
  WS02006252           JUNCTION        2.53          1.100        0.000
  WS02006256           JUNCTION        6.57          2.050        0.000
  YS02001580           JUNCTION        0.78          0.450        0.000
  YS02001583           JUNCTION        0.79          0.500        0.000
  YS02001586           JUNCTION        0.96          0.510        0.000
  YS02001590           JUNCTION        1.04          0.750        0.000
  YS02001593           JUNCTION        1.04          0.752        0.088
  YS02001596           JUNCTION        1.16          0.982        0.088
  YS02001600           JUNCTION        1.32          1.190        0.000
  YS02001601           JUNCTION        1.65          1.440        0.000
  YS02001602           JUNCTION        1.58          1.270        0.000
  YS02001605           JUNCTION        1.53          1.180        0.000
  YS02001607           JUNCTION        1.04          0.651        0.029
  YS02001610           JUNCTION        1.07          0.680        0.000
  YS02001613           JUNCTION        1.04          0.700        0.000
  YS02001616           JUNCTION        1.00          0.610        0.000
  YS02001619           JUNCTION        0.98          0.610        0.000
  YS02001622           JUNCTION        0.98          0.620        0.000
  YS02001625           JUNCTION        1.18          0.780        0.000
  YS02001629           JUNCTION        0.93          0.470        0.000
  YS02001633           JUNCTION        1.21          1.060        0.000
  YS02001641           JUNCTION        1.18          1.065        0.035
  YS02001644           JUNCTION        1.15          0.920        0.000
  YS02001647           JUNCTION        0.94          0.900        0.000
  YS02001649           JUNCTION        1.10          1.050        0.000
  YS02001652           JUNCTION        0.87          1.130        0.000
  YS02001655           JUNCTION        0.63          1.200        0.000
  YS02001658           JUNCTION        0.32          1.300        0.000
  YS02001661           JUNCTION        0.05          1.390        0.000
  YS02001664           JUNCTION        0.01          1.310        0.000
  YS02001745           JUNCTION        0.01          1.350        0.000
  YS02001748           JUNCTION        0.23          1.190        0.000
  YS02001751           JUNCTION        0.46          1.200        0.000
  YS02001754           JUNCTION        0.76          1.150        0.000
  YS02001757           JUNCTION        1.18          1.210        0.000
  YS02001759           JUNCTION        1.08          1.210        0.000
  YS02001762           JUNCTION        1.04          1.150        0.000
  YS02001765           JUNCTION        0.98          1.100        0.000
  YS02001767           JUNCTION        0.95          1.030        0.000
  YS02001770           JUNCTION        0.91          0.920        0.000
  YS02001774           JUNCTION        1.02          1.050        0.000
  YS02001779           JUNCTION        0.73          0.680        0.000
  YS02001783           JUNCTION        0.67          0.518        1.082
  YS02001784           JUNCTION        0.64          0.404        1.086
  YS02001786           JUNCTION        0.53          0.187        1.243
  YS02001882           JUNCTION        0.61          0.729        0.101
  YS02001884           JUNCTION        0.62          0.752        0.118
  YS02001887           JUNCTION        0.66          0.825        0.125
  YS02001890           JUNCTION        0.67          0.760        0.000
  YS02001895           JUNCTION        0.60          0.643        0.107
  YS02001898           JUNCTION        0.59          0.658        0.082
  YS02001901           JUNCTION        0.64          0.772        0.098
  YS02001904           JUNCTION        0.63          0.685        0.165
  YS02001907           JUNCTION        0.87          0.950        0.000
  YS02001910           JUNCTION        0.70          1.036        0.064
  YS02001915           JUNCTION        0.61          1.000        0.000
  YS02001918           JUNCTION        0.52          0.810        0.000
  YS02001920           JUNCTION        0.53          1.140        0.000
  YS02001923           JUNCTION        0.17          0.820        0.000
  YS02001926           JUNCTION        0.20          0.900        0.000
  YS02001929           JUNCTION        0.01          0.780        0.000
  YS02006553           JUNCTION        0.90          1.012        0.178
  YS02006556           JUNCTION        0.78          0.988        0.362
  YS02006558           JUNCTION        0.78          0.974        0.426
  YS02006561           JUNCTION        0.48          0.212        0.938
  YS02163301           JUNCTION        1.19          0.966        0.064
  YS02163601           JUNCTION        1.25          1.080        0.000
  YS02164001           JUNCTION        1.17          1.094        0.006
  
  
  *********************
  Node Flooding Summary
  *********************
  
  Flooding refers to all water that overflows a node, whether it ponds or not.
  --------------------------------------------------------------------------
                                                             Total   Maximum
                                 Maximum   Time of Max       Flood    Ponded
                        Hours       Rate    Occurrence      Volume     Depth
  Node                 Flooded       LPS   days hr:min    10^6 ltr    Meters
  --------------------------------------------------------------------------
  WS02006242              0.01      0.48      0  02:17       0.000     0.000
  WS02006243              0.01      0.59      0  02:17       0.000     0.000
  WS02006248              0.02     19.75      0  02:05       0.001     0.000
  WS02006249              1.21    100.35      0  01:43       0.280     0.000
  WS02006252              0.01    245.63      0  00:00       0.000     0.000
  WS02006256              1.52    293.19      0  00:00       0.542     0.000
  YS02001580              0.01    116.96      0  01:33       0.000     0.000
  YS02001583              0.01    209.47      0  01:34       0.000     0.000
  YS02001586              0.64    471.74      0  01:43       0.548     0.000
  YS02001590              0.01      2.43      0  01:34       0.000     0.000
  YS02001600              0.01      1.92      0  01:34       0.000     0.000
  YS02001601              0.88   1368.36      0  01:40       1.860     0.000
  YS02001602              0.78     62.00      0  01:53       0.161     0.000
  YS02001605              0.01      1.66      0  01:34       0.000     0.000
  YS02001610              0.70    781.09      0  01:42       0.985     0.000
  YS02001613              0.01     36.11      0  01:34       0.000     0.000
  YS02001616              0.01     21.27      0  01:34       0.000     0.000
  YS02001619              0.01     74.97      0  01:34       0.000     0.000
  YS02001622              0.01    253.09      0  01:34       0.001     0.000
  YS02001625              0.68   1376.63      0  01:43       1.637     0.000
  YS02001629              0.15    354.66      0  01:38       0.092     0.000
  YS02001633              0.01      1.29      0  01:36       0.000     0.000
  YS02001644              0.27   1130.17      0  01:40       0.620     0.000
  YS02001647              0.01      6.95      0  02:17       0.000     0.000
  YS02001649              0.01    190.35      0  01:36       0.002     0.000
  YS02001652              0.01    153.62      0  01:35       0.000     0.000
  YS02001655              0.01    539.20      0  01:36       0.001     0.000
  YS02001658              0.01    439.96      0  01:36       0.001     0.000
  YS02001661              0.01    318.09      0  01:36       0.000     0.000
  YS02001664              0.01    114.52      0  01:37       0.000     0.000
  YS02001745              0.01    398.48      0  01:36       0.000     0.000
  YS02001748              0.01    515.31      0  01:36       0.002     0.000
  YS02001751              0.01    410.00      0  01:36       0.001     0.000
  YS02001754              0.01    299.88      0  01:36       0.000     0.000
  YS02001757              0.01     31.92      0  01:36       0.000     0.000
  YS02001759              0.01      5.02      0  01:36       0.000     0.000
  YS02001762              0.01     12.36      0  01:36       0.000     0.000
  YS02001765              0.01      9.72      0  01:36       0.000     0.000
  YS02001767              0.01    183.31      0  01:35       0.001     0.000
  YS02001770              0.01    253.31      0  01:35       0.001     0.000
  YS02001774              0.01    143.52      0  01:35       0.000     0.000
  YS02001779              0.23    642.24      0  01:40       0.326     0.000
  YS02001890              0.20    414.13      0  01:38       0.167     0.000
  YS02001907              0.45   2133.71      0  01:40       1.781     0.000
  YS02001915              0.01      0.67      0  01:40       0.000     0.000
  YS02001918              0.01    267.58      0  01:36       0.004     0.000
  YS02001920              0.01     34.07      0  01:36       0.000     0.000
  YS02001923              0.01    397.49      0  01:36       0.003     0.000
  YS02001926              0.01    836.45      0  01:36       0.004     0.000
  YS02001929              0.01    734.21      0  01:35       0.002     0.000
  YS02163601              0.01      3.88      0  01:36       0.000     0.000
  
  
  **********************
  Storage Volume Summary
  **********************
  
  ------------------------------------------------------------------------------------------------
                         Average    Avg   Evap  Exfil     Maximum    Max    Time of Max    Maximum
                          Volume   Pcnt   Pcnt   Pcnt      Volume   Pcnt     Occurrence    Outflow
  Storage Unit           1000 m³   Full   Loss   Loss     1000 m³   Full    days hr:min        LPS
  ------------------------------------------------------------------------------------------------
  CC-storage               2.637   41.1    0.0    0.0       4.949   77.2       0  02:18    1783.53
  JK-storage               0.157   53.7    0.0    0.0       0.213   73.0       0  01:55    2300.00
  
  
  ***********************
  Outfall Loading Summary
  ***********************
  
  -----------------------------------------------------------
                         Flow       Avg       Max       Total
                         Freq      Flow      Flow      Volume
  Outfall Node           Pcnt       LPS       LPS    10^6 ltr
  -----------------------------------------------------------
  CC-1                  19.58    683.00    683.00       4.237
  CC-2                  15.54    683.00    683.00       3.232
  JK-1                  10.94   1000.00   1000.00       2.905
  JK-2                   0.12   1000.00   1000.00       0.048
  WSC                   99.96    241.96    550.43       6.299
  -----------------------------------------------------------
  System                29.23   3607.96   3366.23      16.722
  
  
  ********************
  Link Flow Summary
  ********************
  
  -----------------------------------------------------------------------------
                                 Maximum  Time of Max   Maximum    Max/    Max/
                                  |Flow|   Occurrence   |Veloc|    Full    Full
  Link                 Type          LPS  days hr:min     m/sec    Flow   Depth
  -----------------------------------------------------------------------------
  1                    CONDUIT    550.43     0  02:10      2.82    0.19    0.30
  WS02003060WS02003069 CONDUIT    548.85     0  02:13      1.64    0.21    0.34
  WS02003066WSF200     CONDUIT    532.48     0  02:13      2.85    0.09    0.22
  WS02003067WS02003066 CONDUIT    532.42     0  02:13      1.20    0.17    0.41
  WS02003069WS02003072 CONDUIT    548.69     0  02:09      1.37    0.26    0.39
  WS02003072WS02003073 CONDUIT    548.84     0  02:09      1.43    1.19    0.37
  WS02004401WS02004402 CONDUIT    538.85     0  03:02      1.20    0.65    0.86
  WS02004402WS02004403 CONDUIT    538.62     0  03:03      1.23    0.77    0.88
  WS02004403WS02004404 CONDUIT    536.31     0  03:03      1.23    0.39    0.93
  WS02004404WS02004405 CONDUIT    536.53     0  03:03      1.42    5.26    0.96
  WS02004405WS02004406 CONDUIT    536.59     0  03:03      1.42    1.06    0.95
  WS02004406WS02004407 CONDUIT    534.98     0  02:11      1.04    0.24    0.62
  WS02004407WS02004409 CONDUIT    534.74     0  02:11      1.55    0.19    0.48
  WS02004409WS02004410 CONDUIT    533.57     0  02:06      1.03    0.69    0.67
  WS02004410WS02004411 CONDUIT    533.29     0  02:12      1.02    0.73    0.68
  WS02004411WS02004412 CONDUIT    532.56     0  02:12      1.06    0.76    0.69
  WS02004412WS02004413 CONDUIT    532.72     0  02:12      1.09    0.36    0.78
  WS02004413WS02003067 CONDUIT    532.34     0  02:12      1.10    0.23    0.59
  WS02006109WS02006110 CONDUIT    557.68     0  02:32      1.11    1.07    1.00
  WS02006110WS02006113 CONDUIT    572.16     0  02:32      1.39    0.52    0.79
  WS02006111WS02006112 CONDUIT    543.60     0  02:43      1.96    0.26    0.67
  WS02006112WS02006115 CONDUIT    555.61     0  03:19      0.86    0.33    0.87
  WS02006113WS02006111 CONDUIT    562.00     0  01:58      2.47    0.67    0.46
  WS02006115WS02006116 CONDUIT    540.55     0  02:13      1.28    0.69    0.76
  WS02006116WS02004401 CONDUIT    540.94     0  03:02      1.19    0.75    0.84
  WS02006228WS02006109 CONDUIT    556.05     0  02:32      1.11    2.43    1.00
  WS02006229WS02006228 CONDUIT    556.23     0  02:32      1.14    1.84    1.00
  WS02006230WS02006229 CONDUIT    556.09     0  02:32      1.44   12.38    1.00
  WS02006231WS02006230 CONDUIT    585.73     0  03:00      1.59    8.88    1.00
  WS02006232WS02006231 CONDUIT    581.57     0  02:28      1.52    1.22    1.00
  WS02006234WS02006232 CONDUIT    580.42     0  02:28      1.51    1.17    1.00
  WS02006235WS02006234 CONDUIT    574.35     0  02:28      1.49    6.06    1.00
  WS02006238WS02006235 CONDUIT    424.99     0  02:35      1.45    0.95    1.00
  WS02006239WS02006238 CONDUIT    424.59     0  02:35      1.20    1.36    1.00
  WS02006240WS02006239 CONDUIT    423.62     0  02:20      1.30    1.33    1.00
  WS02006242WS02006240 CONDUIT    420.59     0  02:30      1.16    1.67    1.00
  WS02006243WS02006242 CONDUIT    420.88     0  02:30      1.41    0.90    1.00
  WS02006245WS02006243 CONDUIT    420.49     0  02:30      1.45    1.24    1.00
  WS02006247WS02006245 CONDUIT    420.28     0  02:20      1.43    3.33    1.00
  WS02006248WS02006247 CONDUIT    420.12     0  02:20      1.44    0.91    1.00
  WS02006249WS02006248 CONDUIT    421.27     0  02:35      1.39    2.31    1.00
  WS02006251WS02006249 CONDUIT    459.02     0  00:00      1.99    1.32    1.00
  WS02006252WS02006251 CONDUIT    404.54     0  03:06      3.87    1.48    1.00
  WS02006256WS02006235 CONDUIT    288.91     0  00:00      4.23    3.06    1.00
  WSF200WS02003060     CONDUIT    532.76     0  02:13      2.06    0.12    0.28
  YS02001580YS02001583 CONDUIT    172.99     0  01:33      0.90    0.67    1.00
  YS02001583YS02001586 CONDUIT    204.99     0  01:33      0.93    0.31    1.00
  YS02001586YS02001590 CONDUIT    318.14     0  01:40      1.28    0.56    1.00
  YS02001590YS02001593 CONDUIT    318.26     0  01:44      1.13    2.00    1.00
  YS02001593YS02001596 CONDUIT    318.30     0  01:44      1.73    0.50    1.00
  YS02001596YS02001600 CONDUIT    318.15     0  01:40      1.22    0.62    1.00
  YS02001600YS02001601 CONDUIT    318.59     0  01:40      1.13    0.55    1.00
  YS02001601YS02001602 CONDUIT    579.38     0  01:33      2.05    2.09    1.00
  YS02001602YS02001605 CONDUIT    579.13     0  01:33      2.05   12.26    1.00
  YS02001605YS02001607 CONDUIT    578.96     0  01:33      2.05    3.17    1.00
  YS02001607YS02001610 CONDUIT    547.05     0  01:33      0.73    0.52    1.00
  YS02001610YS02001613 CONDUIT    517.10     0  01:33      0.68    0.60    1.00
  YS02001613YS02001616 CONDUIT    508.43     0  01:33      0.67    0.44    1.00
  YS02001616YS02001619 CONDUIT    474.82     0  01:34      0.68    0.82    1.00
  YS02001619YS02001622 CONDUIT    961.42     0  01:40      1.31    1.42    1.00
  YS02001622YS02001625 CONDUIT    962.41     0  01:40      1.23    0.51    1.00
  YS02001625YS02001629 CONDUIT    891.59     0  01:34      1.14    0.42    1.00
  YS02001629YS02163301 CONDUIT    877.72     0  01:34      1.12    1.08    1.00
  YS02001633YS02163601 CONDUIT   1419.40     0  01:35      1.81    1.49    1.00
  YS02001641YS02001644 CONDUIT   1412.64     0  01:35      1.80    4.57    1.00
  YS02001644YS02001647 CONDUIT   1937.49     0  01:35      2.47    1.14    1.00
  YS02001647YS02001649 CONDUIT   1947.81     0  01:35      2.48    1.03    1.00
  YS02001649YS02001757 CONDUIT   2196.58     0  01:35      2.80    1.33    1.00
  YS02001652YS02001649 CONDUIT   1059.42     0  01:37      1.35    0.53    1.00
  YS02001655YS02001652 CONDUIT   1059.11     0  01:37      1.58    0.51    1.00
  YS02001658YS02001655 CONDUIT   1058.48     0  01:37      2.06    0.45    1.00
  YS02001661YS02001658 CONDUIT   1057.95     0  01:37      2.47    0.42    1.00
  YS02001664YS02001661 CONDUIT   1058.99     0  01:37      2.54    0.33    1.00
  YS02001745YS02001748 CONDUIT    667.40     0  01:37      2.45    0.26    1.00
  YS02001748YS02001751 CONDUIT    665.82     0  01:37      1.91    0.34    1.00
  YS02001751YS02001754 CONDUIT    665.30     0  01:37      1.59    0.32    1.00
  YS02001754YS02001757 CONDUIT    665.02     0  01:37      0.85    0.27    1.00
  YS02001757CaochengTiaoxuchi CONDUIT   3583.92     0  01:37      4.62    1.55    1.00
  YS02001759YS02001757 CONDUIT   1526.29     0  01:36      1.94    1.08    1.00
  YS02001762YS02001759 CONDUIT    778.93     0  01:36      0.99    0.90    1.00
  YS02001765YS02001762 CONDUIT    779.59     0  01:36      0.99    0.73    1.00
  YS02001767YS02001765 CONDUIT    781.80     0  01:36      1.00    0.98    1.00
  YS02001770YS02001767 CONDUIT    782.16     0  01:36      1.00    3.10    1.00
  YS02001774YS02001770 CONDUIT    659.15     0  01:35      0.84    0.42    1.00
  YS02001779YS02001774 CONDUIT    665.64     0  01:35      0.85    0.34    1.00
  YS02001783YS02001784 CONDUIT   1169.37     0  01:37      2.33    1.61    1.00
  YS02001784YS02001785 CONDUIT   1170.20     0  01:37      2.33    2.72    1.00
  YS02001786YS02001788 CONDUIT   1170.26     0  01:36      2.49    2.25    0.89
  YS02001788YS02001790 CONDUIT   1177.32     0  01:35      2.72    0.87    0.84
  YS02001790YS02001791 CONDUIT   1289.10     0  01:40      3.43    1.40    0.70
  YS02001791YS02001793 CONDUIT   1254.13     0  01:40      6.52    0.54    0.45
  YS02001793JiankangQianchi CONDUIT   1235.27     0  01:39      2.42    0.10    0.65
  YS02001882YS02001884 CONDUIT     78.67     0  01:34      0.17    0.09    1.00
  YS02001884YS02001887 CONDUIT    142.82     0  01:34      0.18    0.19    1.00
  YS02001887YS02001890 CONDUIT    937.23     0  01:38      1.19    1.60    1.00
  YS02001890YS02001895 CONDUIT    603.94     0  01:35      0.77    0.28    1.00
  YS02001895YS02001898 CONDUIT    606.83     0  01:35      0.77    1.05    1.00
  YS02001898YS02001901 CONDUIT    609.94     0  01:35      0.78    0.39    1.00
  YS02001901YS02001904 CONDUIT    610.99     0  01:35      0.78    0.95    1.00
  YS02001904YS02001907 CONDUIT    608.04     0  01:35      0.77    0.21    1.00
  YS02001907YS02006553 CONDUIT    793.67     0  02:03      0.88    0.93    1.00
  YS02001910YS02001907 CONDUIT   1573.36     0  01:40      2.00    0.89    1.00
  YS02001915YS02001910 CONDUIT   1573.10     0  01:40      2.00    0.78    1.00
  YS02001918YS02001915 CONDUIT    744.11     0  01:35      0.95    0.41    1.00
  YS02001920YS02001918 CONDUIT    703.92     0  01:35      0.90    0.68    1.00
  YS02001923YS02001920 CONDUIT    730.72     0  01:35      0.99    0.33    1.00
  YS02001926YS02001923 CONDUIT    982.70     0  01:35      1.42    1.40    1.00
  YS02001929YS02001926 CONDUIT    587.69     0  01:35      1.24    0.28    1.00
  YS02006553YS02006556 CONDUIT    793.09     0  02:03      1.01    0.68    1.00
  YS02006556YS02006558 CONDUIT    794.18     0  02:03      1.01    0.63    1.00
  YS02006558YS02006561 CONDUIT   1174.40     0  01:34      4.15    2.60    1.00
  YS02006561YS02001783 CONDUIT   1169.11     0  01:37      2.33    0.61    1.00
  YS02163301YS02001633 CONDUIT    876.76     0  01:34      1.12    0.82    1.00
  YS02163601YS02164001 CONDUIT   1417.81     0  01:35      1.81    1.26    1.00
  YS02164001YS02001641 CONDUIT   1414.35     0  01:35      1.80    1.93    1.00
  CC-R1                PUMP       683.00     0  00:00              1.00
  CC-R2                PUMP       683.00     0  00:00              1.00
  CC-S1                PUMP       200.00     0  00:00              1.00
  CC-S2                PUMP       200.00     0  00:00              1.00
  JK-R1                PUMP      1000.00     0  00:00              1.00
  JK-R2                PUMP      1000.00     0  00:00              1.00
  JK-S                 PUMP       300.00     0  00:00              1.00
  
  
  ***************************
  Flow Classification Summary
  ***************************
  
  -------------------------------------------------------------------------------------
                      Adjusted    ---------- Fraction of Time in Flow Class ---------- 
                       /Actual         Up    Down  Sub   Sup   Up    Down  Norm  Inlet 
  Conduit               Length    Dry  Dry   Dry   Crit  Crit  Crit  Crit  Ltd   Ctrl  
  -------------------------------------------------------------------------------------
  1                       1.00   0.00  0.00  0.00  0.00  1.00  0.00  0.00  0.38  0.00
  WS02003060WS02003069    1.00   0.00  0.00  0.00  0.97  0.03  0.00  0.00  0.64  0.00
  WS02003066WSF200        1.00   0.05  0.00  0.00  0.00  0.95  0.00  0.00  0.82  0.00
  WS02003067WS02003066    1.00   0.05  0.00  0.00  0.95  0.00  0.00  0.00  0.00  0.00
  WS02003069WS02003072    1.00   0.00  0.00  0.00  0.99  0.01  0.00  0.00  0.69  0.00
  WS02003072WS02003073    1.00   0.00  0.00  0.00  0.00  0.00  0.00  1.00  0.00  0.00
  WS02004401WS02004402    1.00   0.02  0.00  0.00  0.98  0.00  0.00  0.00  0.00  0.00
  WS02004402WS02004403    1.00   0.02  0.00  0.00  0.98  0.00  0.00  0.00  0.00  0.00
  WS02004403WS02004404    1.00   0.00  0.03  0.00  0.97  0.00  0.00  0.00  0.00  0.00
  WS02004404WS02004405    1.00   0.00  0.00  0.00  1.00  0.00  0.00  0.00  0.01  0.00
  WS02004405WS02004406    1.00   0.00  0.00  0.00  1.00  0.00  0.00  0.00  0.00  0.00
  WS02004406WS02004407    1.00   0.00  0.03  0.00  0.97  0.00  0.00  0.00  0.00  0.00
  WS02004407WS02004409    1.00   0.03  0.00  0.00  0.95  0.01  0.00  0.00  0.96  0.00
  WS02004409WS02004410    1.00   0.03  0.00  0.00  0.96  0.00  0.00  0.00  0.00  0.00
  WS02004410WS02004411    1.00   0.04  0.00  0.00  0.96  0.00  0.00  0.00  0.00  0.00
  WS02004411WS02004412    1.00   0.04  0.00  0.00  0.96  0.00  0.00  0.00  0.00  0.00
  WS02004412WS02004413    1.00   0.04  0.00  0.00  0.96  0.00  0.00  0.00  0.00  0.00
  WS02004413WS02003067    1.00   0.04  0.01  0.00  0.00  0.00  0.95  0.00  0.00  0.00
  WS02006109WS02006110    1.00   0.00  0.01  0.00  0.98  0.00  0.01  0.00  0.00  0.00
  WS02006110WS02006113    1.00   0.01  0.01  0.00  0.98  0.00  0.00  0.00  0.00  0.00
  WS02006111WS02006112    1.00   0.02  0.00  0.00  0.98  0.00  0.00  0.00  0.98  0.00
  WS02006112WS02006115    1.00   0.02  0.00  0.00  0.97  0.00  0.00  0.00  0.00  0.00
  WS02006113WS02006111    1.00   0.02  0.00  0.00  0.00  0.98  0.00  0.00  0.18  0.00
  WS02006115WS02006116    1.00   0.02  0.00  0.00  0.97  0.00  0.00  0.01  0.00  0.00
  WS02006116WS02004401    1.00   0.02  0.00  0.00  0.98  0.00  0.00  0.00  0.00  0.00
  WS02006228WS02006109    1.00   0.00  0.00  0.00  1.00  0.00  0.00  0.00  0.00  0.00
  WS02006229WS02006228    1.00   0.00  0.00  0.00  0.99  0.00  0.00  0.01  0.00  0.00
  WS02006230WS02006229    1.00   0.00  0.00  0.00  0.99  0.00  0.00  0.01  0.00  0.00
  WS02006231WS02006230    1.00   0.00  0.00  0.00  0.30  0.00  0.69  0.00  0.00  0.00
  WS02006232WS02006231    1.00   0.00  0.00  0.00  0.98  0.00  0.02  0.00  0.00  0.00
  WS02006234WS02006232    1.00   0.00  0.00  0.00  1.00  0.00  0.00  0.00  0.04  0.00
  WS02006235WS02006234    1.00   0.00  0.00  0.00  0.92  0.00  0.08  0.00  0.00  0.00
  WS02006238WS02006235    1.00   0.00  0.00  0.00  1.00  0.00  0.00  0.00  0.00  0.00
  WS02006239WS02006238    1.00   0.00  0.00  0.00  1.00  0.00  0.00  0.00  0.17  0.00
  WS02006240WS02006239    1.00   0.00  0.00  0.00  0.73  0.00  0.00  0.27  0.03  0.00
  WS02006242WS02006240    1.00   0.00  0.00  0.00  0.98  0.00  0.02  0.00  0.00  0.00
  WS02006243WS02006242    1.00   0.00  0.00  0.00  0.98  0.00  0.00  0.02  0.41  0.00
  WS02006245WS02006243    1.00   0.00  0.00  0.00  0.87  0.00  0.00  0.13  0.01  0.00
  WS02006247WS02006245    1.00   0.00  0.00  0.00  0.98  0.00  0.00  0.02  0.00  0.00
  WS02006248WS02006247    1.00   0.00  0.00  0.00  0.98  0.00  0.00  0.02  0.34  0.00
  WS02006249WS02006248    1.00   0.00  0.00  0.00  0.59  0.00  0.41  0.00  0.00  0.00
  WS02006251WS02006249    1.00   0.00  0.00  0.00  0.99  0.01  0.00  0.00  0.43  0.00
  WS02006252WS02006251    1.00   0.00  0.47  0.00  0.16  0.00  0.37  0.00  0.00  0.00
  WS02006256WS02006235    1.00   0.00  0.00  0.00  1.00  0.00  0.00  0.00  0.00  0.00
  WSF200WS02003060        1.00   0.00  0.05  0.00  0.18  0.76  0.00  0.00  0.52  0.00
  YS02001580YS02001583    1.00   0.19  0.59  0.00  0.22  0.00  0.00  0.00  0.68  0.00
  YS02001583YS02001586    1.00   0.42  0.30  0.00  0.28  0.00  0.00  0.00  0.68  0.00
  YS02001586YS02001590    1.00   0.13  0.00  0.00  0.43  0.04  0.00  0.40  0.33  0.00
  YS02001590YS02001593    1.00   0.13  0.01  0.00  0.15  0.00  0.72  0.00  0.00  0.00
  YS02001593YS02001596    1.00   0.13  0.00  0.00  0.16  0.01  0.00  0.69  0.02  0.00
  YS02001596YS02001600    1.00   0.13  0.00  0.00  0.22  0.01  0.00  0.63  0.04  0.00
  YS02001600YS02001601    1.00   0.13  0.01  0.00  0.86  0.00  0.00  0.00  0.59  0.00
  YS02001601YS02001602    1.00   0.13  0.01  0.00  0.87  0.00  0.00  0.00  0.00  0.00
  YS02001602YS02001605    1.00   0.13  0.00  0.00  0.87  0.00  0.00  0.00  0.00  0.00
  YS02001605YS02001607    1.00   0.14  0.00  0.00  0.86  0.00  0.00  0.00  0.00  0.00
  YS02001607YS02001610    1.00   0.13  0.01  0.00  0.86  0.00  0.00  0.00  0.01  0.00
  YS02001610YS02001613    1.00   0.13  0.00  0.00  0.87  0.00  0.00  0.00  0.00  0.00
  YS02001613YS02001616    1.00   0.13  0.00  0.00  0.87  0.00  0.00  0.00  0.00  0.00
  YS02001616YS02001619    1.00   0.13  0.00  0.00  0.87  0.00  0.00  0.00  0.00  0.00
  YS02001619YS02001622    1.00   0.13  0.00  0.00  0.87  0.00  0.00  0.00  0.29  0.00
  YS02001622YS02001625    1.00   0.13  0.00  0.00  0.87  0.00  0.00  0.00  0.03  0.00
  YS02001625YS02001629    1.00   0.13  0.04  0.00  0.19  0.00  0.64  0.00  0.00  0.00
  YS02001629YS02163301    1.00   0.15  0.01  0.00  0.84  0.00  0.00  0.00  0.00  0.00
  YS02001633YS02163601    1.00   0.00  0.01  0.00  0.99  0.00  0.00  0.00  0.14  0.00
  YS02001641YS02001644    1.00   0.00  0.01  0.00  0.99  0.00  0.00  0.00  0.00  0.00
  YS02001644YS02001647    1.00   0.00  0.16  0.00  0.84  0.00  0.00  0.00  0.00  0.00
  YS02001647YS02001649    1.00   0.00  0.16  0.00  0.59  0.25  0.00  0.00  0.56  0.00
  YS02001649YS02001757    1.00   0.00  0.00  0.00  0.91  0.09  0.00  0.00  0.41  0.00
  YS02001652YS02001649    1.00   0.00  0.00  0.00  0.97  0.03  0.00  0.00  0.71  0.00
  YS02001655YS02001652    1.00   0.00  0.00  0.00  0.22  0.00  0.00  0.77  0.04  0.00
  YS02001658YS02001655    1.00   0.00  0.14  0.00  0.70  0.16  0.00  0.00  0.66  0.00
  YS02001661YS02001658    1.00   0.14  0.00  0.00  0.54  0.32  0.00  0.00  0.69  0.00
  YS02001664YS02001661    1.00   0.13  0.00  0.00  0.78  0.09  0.00  0.00  0.84  0.00
  YS02001745YS02001748    1.00   0.00  0.00  0.00  0.14  0.01  0.00  0.85  0.05  0.00
  YS02001748YS02001751    1.00   0.00  0.00  0.00  0.86  0.14  0.00  0.00  0.77  0.00
  YS02001751YS02001754    1.00   0.00  0.00  0.00  0.21  0.00  0.00  0.78  0.04  0.00
  YS02001754YS02001757    1.00   0.00  0.00  0.00  1.00  0.00  0.00  0.00  0.77  0.00
  YS02001757CaochengTiaoxuchi    1.00   0.00  0.00  0.00  0.99  0.01  0.00  0.00  0.59  0.00
  YS02001759YS02001757    1.00   0.00  0.00  0.00  0.99  0.01  0.00  0.00  0.51  0.00
  YS02001762YS02001759    1.00   0.00  0.00  0.00  1.00  0.00  0.00  0.00  0.04  0.00
  YS02001765YS02001762    1.00   0.00  0.00  0.00  1.00  0.00  0.00  0.00  0.65  0.00
  YS02001767YS02001765    1.00   0.00  0.00  0.00  1.00  0.00  0.00  0.00  0.01  0.00
  YS02001770YS02001767    1.00   0.00  0.00  0.00  1.00  0.00  0.00  0.00  0.00  0.00
  YS02001774YS02001770    1.00   0.00  0.13  0.00  0.70  0.00  0.17  0.00  0.02  0.00
  YS02001779YS02001774    1.00   0.00  0.00  0.00  1.00  0.00  0.00  0.00  0.75  0.00
  YS02001783YS02001784    1.00   0.00  0.17  0.00  0.83  0.00  0.00  0.00  0.55  0.00
  YS02001784YS02001785    1.00   0.00  0.00  0.00  1.00  0.00  0.00  0.00  0.16  0.00
  YS02001786YS02001788    1.00   0.00  0.00  0.00  0.79  0.21  0.00  0.00  0.00  0.00
  YS02001788YS02001790    1.00   0.00  0.00  0.00  0.21  0.79  0.00  0.00  0.79  0.00
  YS02001790YS02001791    1.00   0.00  0.00  0.00  0.01  0.99  0.00  0.00  0.17  0.00
  YS02001791YS02001793    1.00   0.00  0.00  0.00  0.00  1.00  0.00  0.00  0.01  0.00
  YS02001793JiankangQianchi    1.00   0.00  0.00  0.00  0.99  0.01  0.00  0.00  0.93  0.00
  YS02001882YS02001884    1.00   0.15  0.01  0.00  0.85  0.00  0.00  0.00  0.00  0.00
  YS02001884YS02001887    1.00   0.06  0.05  0.00  0.89  0.00  0.00  0.00  0.00  0.00
  YS02001887YS02001890    1.00   0.00  0.00  0.00  0.97  0.00  0.03  0.00  0.00  0.00
  YS02001890YS02001895    1.00   0.00  0.15  0.00  0.84  0.00  0.00  0.00  0.00  0.00
  YS02001895YS02001898    1.00   0.16  0.00  0.00  0.83  0.00  0.01  0.00  0.00  0.00
  YS02001898YS02001901    1.00   0.16  0.00  0.00  0.84  0.00  0.00  0.00  0.01  0.00
  YS02001901YS02001904    1.00   0.16  0.00  0.00  0.84  0.00  0.00  0.00  0.00  0.00
  YS02001904YS02001907    1.00   0.00  0.16  0.00  0.84  0.00  0.00  0.00  0.00  0.00
  YS02001907YS02006553    1.00   0.00  0.02  0.00  0.98  0.00  0.00  0.00  0.00  0.00
  YS02001910YS02001907    1.00   0.00  0.00  0.00  0.97  0.00  0.00  0.03  0.12  0.00
  YS02001915YS02001910    1.00   0.00  0.00  0.00  0.97  0.03  0.00  0.00  0.14  0.00
  YS02001918YS02001915    1.00   0.00  0.01  0.00  0.98  0.02  0.00  0.00  0.73  0.00
  YS02001920YS02001918    1.00   0.00  0.01  0.00  0.99  0.00  0.00  0.00  0.00  0.00
  YS02001923YS02001920    1.00   0.00  0.00  0.00  1.00  0.00  0.00  0.00  0.91  0.00
  YS02001926YS02001923    1.00   0.00  0.07  0.00  0.08  0.00  0.85  0.00  0.00  0.00
  YS02001929YS02001926    1.00   0.00  0.13  0.00  0.87  0.00  0.00  0.00  0.80  0.00
  YS02006553YS02006556    1.00   0.01  0.00  0.00  0.99  0.00  0.00  0.00  0.03  0.00
  YS02006556YS02006558    1.00   0.00  0.00  0.00  1.00  0.00  0.00  0.00  0.00  0.00
  YS02006558YS02006561    1.00   0.17  0.00  0.00  0.07  0.76  0.00  0.00  0.18  0.00
  YS02006561YS02001783    1.00   0.17  0.00  0.00  0.10  0.73  0.00  0.00  0.67  0.00
  YS02163301YS02001633    1.00   0.00  0.15  0.00  0.85  0.00  0.00  0.00  0.00  0.00
  YS02163601YS02164001    1.00   0.00  0.08  0.00  0.92  0.00  0.00  0.00  0.00  0.00
  YS02164001YS02001641    1.00   0.01  0.07  0.00  0.92  0.00  0.00  0.00  0.05  0.00
  
  
  *************************
  Conduit Surcharge Summary
  *************************
  
  ----------------------------------------------------------------------------
                                                           Hours        Hours 
                         --------- Hours Full --------   Above Full   Capacity
  Conduit                Both Ends  Upstream  Dnstream   Normal Flow   Limited
  ----------------------------------------------------------------------------
  WS02003072WS02003073        0.01      0.01      0.01      1.74         0.01
  WS02004404WS02004405        0.01      0.01      0.01      4.26         0.01
  WS02004405WS02004406        0.01      0.01      0.01      0.89         0.01
  WS02006109WS02006110        0.85      0.85      2.27      1.09         0.01
  WS02006110WS02006113        0.01      0.01      2.26      0.01         0.01
  WS02006111WS02006112        0.01      0.01      2.39      0.01         0.01
  WS02006112WS02006115        0.01      0.01      1.03      0.01         0.01
  WS02006228WS02006109        2.24      2.28      2.24      2.94         2.23
  WS02006229WS02006228        2.23      2.24      2.23      2.58         2.22
  WS02006230WS02006229        2.36      2.50      2.36      5.08         2.36
  WS02006231WS02006230        0.88      0.88      1.23      4.55         0.01
  WS02006232WS02006231        1.13      1.13      2.31      1.24         0.01
  WS02006234WS02006232        2.15      2.15      2.31      1.21         1.20
  WS02006235WS02006234        1.65      1.66      2.18      4.29         0.03
  WS02006238WS02006235        2.23      2.23      2.31      0.01         0.01
  WS02006239WS02006238        2.23      2.25      2.27      2.36         1.94
  WS02006240WS02006239        2.20      2.23      2.20      2.37         1.83
  WS02006242WS02006240        2.23      2.23      2.30      2.54         0.01
  WS02006243WS02006242        2.23      2.23      2.27      0.01         0.09
  WS02006245WS02006243        2.22      2.22      2.23      1.47         1.30
  WS02006247WS02006245        2.22      2.23      2.22      4.12         2.20
  WS02006248WS02006247        2.22      2.22      2.22      0.01         0.09
  WS02006249WS02006248        2.21      2.21      2.21      4.04         0.01
  WS02006251WS02006249        2.21      2.21      2.21      2.47         2.09
  WS02006252WS02006251        2.52      2.52      2.53      2.53         0.01
  WS02006256WS02006235        4.32      4.38      6.52      1.52         0.01
  YS02001580YS02001583        0.78      0.78      0.85      0.01         0.01
  YS02001583YS02001586        0.79      0.79      0.96      0.01         0.01
  YS02001586YS02001590        0.97      0.97      1.04      0.01         0.01
  YS02001590YS02001593        1.04      1.04      1.06      1.11         0.01
  YS02001593YS02001596        1.05      1.05      1.16      0.01         0.01
  YS02001596YS02001600        1.21      1.21      1.32      0.01         0.01
  YS02001600YS02001601        1.39      1.39      1.65      0.01         0.01
  YS02001601YS02001602        1.58      1.58      1.68      1.31         0.01
  YS02001602YS02001605        1.53      1.53      1.58      2.32         0.01
  YS02001605YS02001607        1.48      1.53      1.48      1.63         1.48
  YS02001607YS02001610        1.04      1.04      1.07      0.01         0.01
  YS02001610YS02001613        1.04      1.04      1.07      0.01         0.01
  YS02001613YS02001616        1.00      1.00      1.04      0.01         0.01
  YS02001616YS02001619        0.98      0.98      1.00      0.01         0.03
  YS02001619YS02001622        0.98      0.98      0.98      1.01         0.90
  YS02001622YS02001625        0.98      0.98      1.18      0.01         0.01
  YS02001625YS02001629        0.93      0.93      1.18      0.01         0.01
  YS02001629YS02163301        1.18      1.18      1.19      0.01         0.12
  YS02001633YS02163601        1.21      1.21      1.25      0.29         0.28
  YS02001641YS02001644        1.15      1.18      1.15      1.70         1.13
  YS02001644YS02001647        0.94      0.94      1.15      0.03         0.01
  YS02001647YS02001649        0.94      0.94      1.10      0.01         0.01
  YS02001649YS02001757        1.09      1.10      1.18      0.04         0.04
  YS02001652YS02001649        0.90      0.90      1.10      0.01         0.01
  YS02001655YS02001652        0.63      0.63      0.87      0.01         0.01
  YS02001658YS02001655        0.32      0.32      0.63      0.01         0.01
  YS02001661YS02001658        0.05      0.05      0.32      0.01         0.01
  YS02001664YS02001661        0.01      0.01      0.12      0.01         0.01
  YS02001745YS02001748        0.01      0.01      0.23      0.01         0.01
  YS02001748YS02001751        0.28      0.28      0.46      0.01         0.01
  YS02001751YS02001754        0.46      0.46      0.76      0.01         0.01
  YS02001754YS02001757        0.82      0.82      1.18      0.01         0.01
  YS02001757CaochengTiaoxuchi        1.12      1.18      2.24      0.43         0.36
  YS02001759YS02001757        1.08      1.08      1.18      0.05         0.05
  YS02001762YS02001759        1.04      1.04      1.08      0.01         0.02
  YS02001765YS02001762        0.98      0.98      1.04      0.01         0.01
  YS02001767YS02001765        0.95      0.95      0.98      0.01         0.02
  YS02001770YS02001767        0.94      0.94      0.95      0.66         0.64
  YS02001774YS02001770        0.91      0.91      1.02      0.01         0.01
  YS02001779YS02001774        0.73      0.73      1.02      0.01         0.01
  YS02001783YS02001784        0.64      0.67      0.64      0.81         0.64
  YS02001784YS02001785        0.53      0.64      0.53      1.09         0.53
  YS02001786YS02001788        0.01      0.53      0.01      0.92         0.01
  YS02001790YS02001791        0.01      0.01      0.01      0.63         0.01
  YS02001793JiankangQianchi        0.01      0.01      7.70      0.01         0.01
  YS02001882YS02001884        0.61      0.61      0.62      0.01         0.01
  YS02001884YS02001887        0.64      0.64      0.66      0.01         0.01
  YS02001887YS02001890        0.67      0.67      0.68      0.18         0.01
  YS02001890YS02001895        0.60      0.60      0.70      0.01         0.01
  YS02001895YS02001898        0.59      0.59      0.60      0.01         0.01
  YS02001898YS02001901        0.60      0.60      0.64      0.01         0.01
  YS02001901YS02001904        0.63      0.63      0.64      0.01         0.01
  YS02001904YS02001907        0.63      0.63      0.90      0.01         0.01
  YS02001907YS02006553        1.10      1.10      1.18      0.01         0.01
  YS02001910YS02001907        0.70      0.70      0.87      0.01         0.01
  YS02001915YS02001910        0.61      0.61      0.70      0.01         0.01
  YS02001918YS02001915        0.52      0.52      0.61      0.01         0.01
  YS02001920YS02001918        0.52      0.52      0.53      0.01         0.01
  YS02001923YS02001920        0.47      0.47      0.53      0.01         0.01
  YS02001926YS02001923        0.17      0.17      0.20      0.01         0.01
  YS02001929YS02001926        0.01      0.01      0.20      0.01         0.01
  YS02006553YS02006556        0.79      0.79      0.90      0.01         0.01
  YS02006556YS02006558        0.84      0.84      0.93      0.01         0.01
  YS02006558YS02006561        0.55      0.78      0.55      1.04         0.55
  YS02006561YS02001783        0.48      0.48      0.67      0.01         0.01
  YS02163301YS02001633        1.19      1.19      1.23      0.01         0.01
  YS02163601YS02164001        1.17      1.17      1.25      0.03         0.01
  YS02164001YS02001641        1.17      1.17      1.18      0.79         0.75
  
  
  ***************
  Pumping Summary
  ***************
  
  ---------------------------------------------------------------------------------------------------------
                                                  Min       Avg       Max     Total     Power    % Time Off
                        Percent   Number of      Flow      Flow      Flow    Volume     Usage    Pump Curve
  Pump                 Utilized   Start-Ups       LPS       LPS       LPS  10^6 ltr     Kw-hr    Low   High
  ---------------------------------------------------------------------------------------------------------
  CC-R1                   21.54           2      0.00    683.00    683.00     4.236     80.90    0.0    4.8
  CC-R2                   16.43           2      0.00    683.00    683.00     3.232     62.33    0.0    6.3
  CC-S1                   46.51           4      0.00    200.00    200.00     2.679     15.19    0.0    0.0
  CC-S2                   37.81           6      0.00    200.00    200.00     2.178     12.34    0.0    0.0
  JK-R1                   10.08          15      0.00   1000.00   1000.00     2.904     35.10    0.0    0.0
  JK-R2                    0.16           1      0.00   1000.00   1000.00     0.047      0.36    0.0    0.0
  JK-S                    19.04          24      0.00    300.00    300.00     1.645     21.63    0.0    0.0
  

  Analysis begun on:  Wed Apr 23 23:56:22 2025
  Analysis ended on:  Wed Apr 23 23:56:23 2025
  Total elapsed time: 00:00:01