
  EPA STORM WATER MANAGEMENT MODEL - VERSION 5.2 (Build 5.2.4)
  PYSWMM TOOLKIT API - VERSION v1.0 (2023-11-27)
  ------------------------------------------------------------

  WARNING 04: minimum elevation drop used for Conduit WS02004404WS02004405
  WARNING 03: negative offset ignored for Link YS02001904YS02001907
  
  ****************
  Analysis Options
  ****************
  Flow Units ............... LPS
  Process Models:
    Rainfall/Runoff ........ YES
    RDII ................... NO
    Snowmelt ............... NO
    Groundwater ............ NO
    Flow Routing ........... YES
    Ponding Allowed ........ NO
    Water Quality .......... NO
  Infiltration Method ...... HORTON
  Flow Routing Method ...... DYNWAVE
  Surcharge Method ......... EXTRAN
  Starting Date ............ 08/28/2015 08:00:00
  Ending Date .............. 08/28/2015 16:00:00
  Antecedent Dry Days ...... 8.0
  Report Time Step ......... 00:01:00
  Wet Time Step ............ 00:01:00
  Dry Time Step ............ 00:01:00
  Routing Time Step ........ 30.00 sec
  Variable Time Step ....... YES
  Maximum Trials ........... 8
  Number of Threads ........ 4
  Head Tolerance ........... 0.001500 m
  
  
  **************************        Volume         Depth
  Runoff Quantity Continuity     hectare-m            mm
  **************************     ---------       -------
  Total Precipitation ......         3.137        94.582
  Evaporation Loss .........         0.000         0.000
  Infiltration Loss ........         0.104         3.150
  Surface Runoff ...........         3.000        90.454
  Final Storage ............         0.033         0.996
  Continuity Error (%) .....        -0.018
  
  
  **************************        Volume        Volume
  Flow Routing Continuity        hectare-m      10^6 ltr
  **************************     ---------     ---------
  Dry Weather Inflow .......         0.025         0.251
  Wet Weather Inflow .......         3.000        30.001
  Groundwater Inflow .......         0.000         0.000
  RDII Inflow ..............         0.000         0.000
  External Inflow ..........         0.083         0.834
  External Outflow .........         1.814        18.137
  Flooding Loss ............         1.283        12.829
  Evaporation Loss .........         0.000         0.000
  Exfiltration Loss ........         0.000         0.000
  Initial Stored Volume ....         0.243         2.431
  Final Stored Volume ......         0.259         2.592
  Continuity Error (%) .....        -0.128
  
  
  *************************
  Highest Continuity Errors
  *************************
  Node YS02001884 (5.17%)
  Node YS02001583 (-4.18%)
  
  
  ***************************
  Time-Step Critical Elements
  ***************************
  Link WS02006252WS02006251 (52.11%)
  Link WS02006238WS02006235 (10.28%)
  Link YS02001791YS02001793 (7.65%)
  Link WS02003066WSF200 (7.49%)
  Link WS02004404WS02004405 (7.24%)
  
  
  ********************************
  Highest Flow Instability Indexes
  ********************************
  Link WS02006113WS02006111 (41)
  Link WS02006111WS02006112 (23)
  Link WS02004404WS02004405 (19)
  Link WS02004403WS02004404 (16)
  Link WS02006252WS02006251 (15)
  
  
  *********************************
  Most Frequent Nonconverging Nodes
  *********************************
  Node CC-1 (11.06%)
  Node CC-2 (11.06%)
  Node JK-1 (11.06%)
  Node JK-2 (11.06%)
  Node WSC (11.06%)
  
  
  *************************
  Routing Time Step Summary
  *************************
  Minimum Time Step           :     0.01 sec
  Average Time Step           :     1.70 sec
  Maximum Time Step           :     6.43 sec
  % of Time in Steady State   :     0.00
  Average Iterations per Step :     3.02
  % of Steps Not Converging   :    11.06
  Time Step Frequencies       :
     30.000 - 13.228 sec      :     0.00 %
     13.228 -  5.833 sec      :     2.23 %
      5.833 -  2.572 sec      :    20.48 %
      2.572 -  1.134 sec      :    20.06 %
      1.134 -  0.500 sec      :    57.23 %
  
  
  ***************************
  Subcatchment Runoff Summary
  ***************************
  
  ------------------------------------------------------------------------------------------------------------------------------
                            Total      Total      Total      Total     Imperv       Perv      Total       Total     Peak  Runoff
                           Precip      Runon       Evap      Infil     Runoff     Runoff     Runoff      Runoff   Runoff   Coeff
  Subcatchment                 mm         mm         mm         mm         mm         mm         mm    10^6 ltr      LPS
  ------------------------------------------------------------------------------------------------------------------------------
  sub60                     94.58       0.00       0.00       1.89      82.03       9.47      91.50        1.20   742.62   0.967
  sub61                     94.58       0.00       0.00       2.73      77.38      13.35      90.72        1.66  1032.42   0.959
  sub62                     94.58       0.00       0.00       1.26      85.73       6.31      92.04        2.52  1473.36   0.973
  sub63                     94.58       0.00       0.00       5.05      66.19      22.39      88.57        2.01  1189.06   0.936
  sub64                     94.58       0.00       0.00       2.55      79.19      11.64      90.83        2.18  1219.11   0.960
  sub65                     94.58       0.00       0.00       2.21      81.03      10.09      91.12        2.51  1365.05   0.963
  sub66                     94.58       0.00       0.00       6.26      66.08      21.18      87.25        4.07  1864.38   0.923
  sub67                     94.58       0.00       0.00       1.21      85.78       6.36      92.14        1.71  1108.90   0.974
  sub68                     94.58       0.00       0.00       2.27      80.16      10.98      91.14        2.51  1506.35   0.964
  sub69                     94.58       0.00       0.00       2.04      80.29      12.15      92.43        3.42  1813.93   0.977
  sub70                     94.58       0.00       0.00       6.82      62.26      25.34      87.60        2.53  1051.62   0.926
  sub71                     94.58       0.00       0.00       1.29      85.69       6.28      91.97        2.40  1315.29   0.972
  sub72                     94.58       0.00       0.00       1.15      86.56       5.47      92.03        1.27   647.12   0.973
  
  
  ******************
  Node Depth Summary
  ******************
  
  ---------------------------------------------------------------------------------
                                 Average  Maximum  Maximum  Time of Max    Reported
                                   Depth    Depth      HGL   Occurrence   Max Depth
  Node                 Type       Meters   Meters   Meters  days hr:min      Meters
  ---------------------------------------------------------------------------------
  WS02003060           JUNCTION     0.22     0.38     5.32     0  02:16        0.38
  WS02003066           JUNCTION     0.18     0.30     5.85     0  02:17        0.30
  WS02003067           JUNCTION     0.48     0.70     6.02     0  02:17        0.70
  WS02003069           JUNCTION     0.25     0.43     5.01     0  02:17        0.43
  WS02003072           JUNCTION     0.31     0.50     4.87     0  02:18        0.50
  WS02003073           JUNCTION     0.18     0.30     4.36     0  02:19        0.30
  WS02004401           JUNCTION     0.56     0.88     6.88     0  02:14        0.87
  WS02004402           JUNCTION     0.59     0.90     6.86     0  02:14        0.90
  WS02004403           JUNCTION     0.62     0.93     6.86     0  02:14        0.92
  WS02004404           JUNCTION     0.69     1.02     6.87     0  02:14        1.00
  WS02004405           JUNCTION     0.68     0.98     6.83     0  02:15        0.97
  WS02004406           JUNCTION     0.69     0.96     6.79     0  02:14        0.96
  WS02004407           JUNCTION     0.16     0.30     6.61     0  02:14        0.30
  WS02004409           JUNCTION     0.36     0.67     6.44     0  02:15        0.67
  WS02004410           JUNCTION     0.39     0.68     6.40     0  02:16        0.68
  WS02004411           JUNCTION     0.41     0.69     6.37     0  02:16        0.69
  WS02004412           JUNCTION     0.43     0.70     6.34     0  02:16        0.70
  WS02004413           JUNCTION     0.59     0.86     6.33     0  02:17        0.86
  WS02006109           JUNCTION     0.63     1.27     7.89     0  02:21        1.13
  WS02006110           JUNCTION     0.63     1.35     7.93     0  02:21        1.02
  WS02006111           JUNCTION     0.17     0.29     6.99     0  02:33        0.29
  WS02006112           JUNCTION     0.72     1.09     6.97     0  03:03        1.09
  WS02006113           JUNCTION     0.25     0.46     7.35     0  03:05        0.45
  WS02006115           JUNCTION     0.45     0.77     6.91     0  02:15        0.77
  WS02006116           JUNCTION     0.53     0.85     6.89     0  02:15        0.85
  WS02006228           JUNCTION     0.62     1.24     7.90     0  02:21        1.17
  WS02006229           JUNCTION     0.59     1.28     7.98     0  02:21        1.14
  WS02006230           JUNCTION     0.59     1.49     8.23     0  02:21        1.21
  WS02006231           JUNCTION     0.41     1.31     8.43     0  01:55        0.96
  WS02006232           JUNCTION     0.54     1.49     8.52     0  02:25        1.23
  WS02006234           JUNCTION     0.47     1.95     9.11     0  02:15        1.25
  WS02006235           JUNCTION     0.51     1.54     8.71     0  02:15        1.45
  WS02006238           JUNCTION     0.54     1.59     8.74     0  02:15        1.48
  WS02006239           JUNCTION     0.50     1.53     8.74     0  02:20        1.39
  WS02006240           JUNCTION     0.47     1.49     8.78     0  02:15        1.32
  WS02006242           JUNCTION     0.55     1.52     8.79     0  02:20        1.41
  WS02006243           JUNCTION     0.45     1.35     8.77     0  02:20        1.32
  WS02006245           JUNCTION     0.46     1.34     8.82     0  02:53        1.34
  WS02006247           JUNCTION     0.49     1.31     8.81     0  02:53        1.31
  WS02006248           JUNCTION     0.45     1.10     8.69     0  01:50        1.10
  WS02006249           JUNCTION     0.49     1.09     8.69     0  01:49        1.09
  WS02006251           JUNCTION     0.49     1.50     9.17     0  02:53        1.50
  WS02006252           JUNCTION     0.36     1.50     9.74     0  00:00        1.00
  WS02006256           JUNCTION     0.97     2.35     9.28     0  00:00        2.35
  WSF200               JUNCTION     0.16     0.29     5.53     0  02:17        0.29
  YS02001580           JUNCTION     0.10     1.05     9.59     0  01:47        0.79
  YS02001583           JUNCTION     0.14     1.14     9.64     0  01:47        0.82
  YS02001586           JUNCTION     0.20     1.13     9.30     0  01:47        1.13
  YS02001590           JUNCTION     0.30     1.40     9.26     0  01:47        1.40
  YS02001593           JUNCTION     0.24     1.46     9.32     0  01:47        1.46
  YS02001596           JUNCTION     0.32     1.80     9.22     0  01:47        1.80
  YS02001600           JUNCTION     0.38     1.87     9.00     0  01:47        1.87
  YS02001601           JUNCTION     0.56     2.06     8.90     0  01:46        2.06
  YS02001602           JUNCTION     0.47     1.87     8.77     0  01:49        1.87
  YS02001605           JUNCTION     0.44     1.78     8.68     0  02:03        1.78
  YS02001607           JUNCTION     0.43     1.65     8.50     0  02:15        1.65
  YS02001610           JUNCTION     0.48     1.68     8.48     0  01:50        1.68
  YS02001613           JUNCTION     0.44     1.67     8.51     0  01:50        1.67
  YS02001616           JUNCTION     0.37     1.61     8.52     0  01:50        1.61
  YS02001619           JUNCTION     0.35     1.61     8.54     0  01:59        1.61
  YS02001622           JUNCTION     0.34     1.58     8.49     0  02:01        1.58
  YS02001625           JUNCTION     0.60     1.78     8.38     0  01:50        1.78
  YS02001629           JUNCTION     0.46     1.85     8.40     0  01:51        1.85
  YS02001633           JUNCTION     0.54     2.03     8.48     0  02:00        2.02
  YS02001641           JUNCTION     0.53     1.96     8.39     0  02:00        1.95
  YS02001644           JUNCTION     0.52     1.92     8.35     0  01:53        1.92
  YS02001647           JUNCTION     0.33     1.78     8.39     0  01:53        1.76
  YS02001649           JUNCTION     0.37     2.02     8.41     0  01:59        2.01
  YS02001652           JUNCTION     0.28     1.94     8.54     0  01:53        1.86
  YS02001655           JUNCTION     0.22     1.70     8.55     0  02:00        1.69
  YS02001658           JUNCTION     0.16     1.60     8.75     0  01:53        1.47
  YS02001661           JUNCTION     0.18     1.29     8.69     0  02:01        1.28
  YS02001664           JUNCTION     0.06     0.79     8.71     0  02:01        0.78
  YS02001745           JUNCTION     0.09     0.96     8.48     0  02:01        0.95
  YS02001748           JUNCTION     0.16     1.47     8.54     0  01:54        1.37
  YS02001751           JUNCTION     0.19     1.54     8.42     0  02:01        1.53
  YS02001754           JUNCTION     0.25     1.78     8.39     0  02:00        1.78
  YS02001757           JUNCTION     0.41     2.10     8.36     0  02:00        2.09
  YS02001759           JUNCTION     0.35     2.10     8.46     0  01:59        2.09
  YS02001762           JUNCTION     0.34     2.06     8.46     0  01:59        2.05
  YS02001765           JUNCTION     0.32     2.01     8.46     0  01:59        2.00
  YS02001767           JUNCTION     0.32     1.98     8.47     0  01:51        1.96
  YS02001770           JUNCTION     0.32     1.95     8.44     0  01:51        1.95
  YS02001774           JUNCTION     0.39     2.02     8.44     0  01:51        2.00
  YS02001779           JUNCTION     0.24     1.68     8.37     0  01:51        1.68
  YS02001783           JUNCTION     0.23     1.25     7.39     0  02:00        1.23
  YS02001784           JUNCTION     0.25     1.13     7.20     0  02:01        1.12
  YS02001786           JUNCTION     0.21     0.88     6.91     0  02:01        0.88
  YS02001788           JUNCTION     0.15     0.63     6.60     0  02:01        0.63
  YS02001790           JUNCTION     0.18     0.73     6.37     0  02:03        0.72
  YS02001791           JUNCTION     0.11     0.44     5.91     0  02:00        0.44
  YS02001793           JUNCTION     0.06     0.31     5.14     0  02:01        0.30
  YS02001882           JUNCTION     0.30     1.70     8.41     0  02:00        1.68
  YS02001884           JUNCTION     0.39     1.79     8.41     0  02:00        1.79
  YS02001887           JUNCTION     0.47     1.86     8.40     0  02:00        1.86
  YS02001890           JUNCTION     0.49     1.81     8.32     0  01:52        1.81
  YS02001895           JUNCTION     0.27     1.57     8.32     0  01:52        1.57
  YS02001898           JUNCTION     0.28     1.58     8.31     0  01:52        1.58
  YS02001901           JUNCTION     0.39     1.69     8.30     0  01:52        1.69
  YS02001904           JUNCTION     0.37     1.65     8.28     0  01:52        1.65
  YS02001907           JUNCTION     0.68     1.96     8.25     0  01:52        1.96
  YS02001910           JUNCTION     0.49     2.01     8.52     0  02:02        2.01
  YS02001915           JUNCTION     0.31     2.00     8.72     0  02:02        2.00
  YS02001918           JUNCTION     0.18     1.81     8.88     0  01:52        1.70
  YS02001920           JUNCTION     0.25     2.04     9.05     0  01:52        1.78
  YS02001923           JUNCTION     0.13     1.91     9.17     0  01:52        1.54
  YS02001926           JUNCTION     0.16     1.78     9.22     0  01:52        1.38
  YS02001929           JUNCTION     0.09     1.64     9.34     0  01:52        1.16
  YS02006553           JUNCTION     0.69     1.99     8.27     0  02:00        1.98
  YS02006556           JUNCTION     0.66     1.98     8.29     0  02:00        1.97
  YS02006558           JUNCTION     0.70     2.03     8.30     0  01:59        2.02
  YS02006561           JUNCTION     0.15     0.92     7.58     0  02:00        0.91
  YS02163301           JUNCTION     0.48     1.93     8.44     0  02:03        1.93
  YS02163601           JUNCTION     0.58     2.04     8.44     0  02:00        2.03
  YS02164001           JUNCTION     0.51     1.96     8.41     0  02:00        1.94
  CC-1                 OUTFALL      0.00     0.00     0.00     0  00:00        0.00
  CC-2                 OUTFALL      0.00     0.00     0.00     0  00:00        0.00
  JK-1                 OUTFALL      0.00     0.00     0.00     0  00:00        0.00
  JK-2                 OUTFALL      0.00     0.00     0.00     0  00:00        0.00
  WSC                  OUTFALL      0.17     0.30     0.97     0  02:20        0.30
  CC-storage           STORAGE      1.00     1.95     7.45     0  02:34        1.95
  JK-storage           STORAGE      3.28     4.24     5.04     0  02:20        4.20
  
  
  *******************
  Node Inflow Summary
  *******************
  
  -------------------------------------------------------------------------------------------------
                                  Maximum  Maximum                  Lateral       Total        Flow
                                  Lateral    Total  Time of Max      Inflow      Inflow     Balance
                                   Inflow   Inflow   Occurrence      Volume      Volume       Error
  Node                 Type           LPS      LPS  days hr:min    10^6 ltr    10^6 ltr     Percent
  -------------------------------------------------------------------------------------------------
  WS02003060           JUNCTION     16.53   556.25     0  02:17       0.476        6.19       0.085
  WS02003066           JUNCTION      0.00   538.57     0  02:17           0        5.72       0.044
  WS02003067           JUNCTION      0.00   538.39     0  02:17           0        5.72       0.100
  WS02003069           JUNCTION      0.32   555.45     0  02:16     0.00922        6.19       0.142
  WS02003072           JUNCTION      0.00   553.83     0  02:17           0        6.18       0.216
  WS02003073           JUNCTION      1.82   555.53     0  02:19      0.0524        6.22       0.201
  WS02004401           JUNCTION      0.00   552.01     0  02:14           0        5.86       0.219
  WS02004402           JUNCTION      0.00   554.70     0  02:14           0        5.84       0.217
  WS02004403           JUNCTION      0.00   563.05     0  02:14           0        5.83       0.206
  WS02004404           JUNCTION      0.16   582.10     0  02:15     0.00467        5.82       0.165
  WS02004405           JUNCTION      0.04   612.44     0  02:14      0.0011        5.81       0.171
  WS02004406           JUNCTION      0.00   563.95     0  02:15           0        5.81       0.415
  WS02004407           JUNCTION      0.00   546.90     0  02:14           0        5.78       0.047
  WS02004409           JUNCTION      0.00   543.46     0  02:14           0        5.78       0.111
  WS02004410           JUNCTION      0.00   542.17     0  02:16           0        5.77       0.148
  WS02004411           JUNCTION      0.00   539.92     0  02:16           0        5.76       0.167
  WS02004412           JUNCTION      0.00   539.54     0  02:16           0        5.75       0.200
  WS02004413           JUNCTION      0.00   540.04     0  02:16           0        5.74       0.334
  WS02006109           JUNCTION      1.23   560.49     0  02:37      0.0354        5.91       0.123
  WS02006110           JUNCTION      0.00   562.56     0  02:37           0        5.91       0.153
  WS02006111           JUNCTION      0.00   561.89     0  02:49           0         5.9       0.023
  WS02006112           JUNCTION      0.00   542.41     0  02:39           0        5.89       0.364
  WS02006113           JUNCTION      0.00   568.81     0  01:52           0         5.9       0.049
  WS02006115           JUNCTION      0.00   545.58     0  03:08           0        5.87       0.164
  WS02006116           JUNCTION      0.00   544.92     0  02:14           0        5.86       0.124
  WS02006228           JUNCTION      0.00   557.67     0  02:37           0        5.88       0.062
  WS02006229           JUNCTION      0.00   557.55     0  02:21           0        5.89       0.127
  WS02006230           JUNCTION     10.28   595.42     0  03:31       0.296         5.9       0.081
  WS02006231           JUNCTION      0.00   579.10     0  02:42           0         5.6      -0.068
  WS02006232           JUNCTION      0.00   578.12     0  02:42           0        5.61       0.269
  WS02006234           JUNCTION      0.00   572.77     0  02:42           0         5.6      -0.186
  WS02006235           JUNCTION      0.00   566.50     0  02:36           0        5.66       0.202
  WS02006238           JUNCTION      0.00   429.40     0  01:50           0        4.59      -0.124
  WS02006239           JUNCTION      0.00   428.96     0  03:30           0        4.56      -0.166
  WS02006240           JUNCTION      0.00   426.58     0  03:30           0        4.54      -0.028
  WS02006242           JUNCTION      0.00   425.85     0  03:30           0        4.52       0.027
  WS02006243           JUNCTION      0.00   425.88     0  03:30           0         4.5      -0.038
  WS02006245           JUNCTION      0.00   426.36     0  03:30           0        4.51       0.341
  WS02006247           JUNCTION      0.00   427.40     0  03:30           0        4.51       0.015
  WS02006248           JUNCTION      0.00   427.50     0  03:30           0        4.52       0.093
  WS02006249           JUNCTION      0.00   459.02     0  00:00           0        4.81       0.359
  WS02006251           JUNCTION      0.08   409.86     0  02:53     0.00222        4.81      -0.063
  WS02006252           JUNCTION      0.00   400.00     0  00:00           0         4.8      -0.035
  WS02006256           JUNCTION      0.00   300.00     0  00:00           0        1.61      -0.806
  WSF200               JUNCTION      0.00   538.85     0  02:17           0        5.71       0.026
  YS02001580           JUNCTION      0.00    74.80     0  01:46           0     0.00419       1.119
  YS02001583           JUNCTION      0.00   123.86     0  01:46           0      0.0156      -4.013
  YS02001586           JUNCTION   1051.62  1051.62     0  02:04        2.53        2.54       0.041
  YS02001590           JUNCTION      0.00   318.33     0  02:21           0        1.69      -0.017
  YS02001593           JUNCTION      0.00   318.20     0  02:21           0        1.69       0.005
  YS02001596           JUNCTION      0.00   318.07     0  02:29           0        1.69      -0.009
  YS02001600           JUNCTION      0.00   318.12     0  02:15           0        1.69       0.012
  YS02001601           JUNCTION   1813.93  2131.76     0  02:02        3.42        5.11       0.019
  YS02001602           JUNCTION      0.00   501.69     0  01:46           0        2.72       0.019
  YS02001605           JUNCTION      0.00   501.11     0  01:46           0        2.53       0.026
  YS02001607           JUNCTION      0.00   500.31     0  01:46           0        2.53       0.081
  YS02001610           JUNCTION      0.00   953.06     0  02:07           0        3.12       0.078
  YS02001613           JUNCTION      0.00   616.81     0  02:07           0        2.38       0.067
  YS02001616           JUNCTION      0.00   617.14     0  02:07           0        2.38       0.020
  YS02001619           JUNCTION   1864.38  1864.38     0  02:03        4.07        5.85      -0.001
  YS02001622           JUNCTION      0.00  1053.93     0  02:06           0         5.2       0.001
  YS02001625           JUNCTION      0.00  1505.25     0  02:07           0        5.67       0.191
  YS02001629           JUNCTION      0.00   908.57     0  01:50           0         3.9       0.001
  YS02001633           JUNCTION   1365.25  1365.25     0  02:02        2.51        5.84       0.061
  YS02001641           JUNCTION      0.00  1299.44     0  01:50           0        5.27       0.054
  YS02001644           JUNCTION   1219.15  2160.04     0  02:02        2.18         7.5       0.044
  YS02001647           JUNCTION      0.00  1654.07     0  01:50           0        6.17       0.009
  YS02001649           JUNCTION      0.00  1816.11     0  01:49           0        8.13      -0.001
  YS02001652           JUNCTION      0.00  1200.44     0  02:01           0        2.02      -0.051
  YS02001655           JUNCTION      0.15  1201.03     0  02:01     0.00443        2.02       0.025
  YS02001658           JUNCTION      0.00  1199.70     0  02:01           0        2.01      -0.032
  YS02001661           JUNCTION      0.00  1199.91     0  02:01           0        2.01       0.001
  YS02001664           JUNCTION   1189.06  1189.06     0  02:02        2.01        2.01      -0.007
  YS02001745           JUNCTION    742.62   742.62     0  02:02         1.2         1.2       0.119
  YS02001748           JUNCTION      0.04   755.20     0  02:01      0.0013         1.2      -0.189
  YS02001751           JUNCTION      0.01   755.01     0  02:01    0.000317        1.21       0.060
  YS02001754           JUNCTION      0.26   756.00     0  02:01     0.00749        1.22      -0.112
  YS02001757           JUNCTION      0.00  3076.23     0  02:00           0        12.9       0.009
  YS02001759           JUNCTION   1032.46  1343.84     0  02:01        1.67        3.56      -0.009
  YS02001762           JUNCTION      0.00   696.09     0  01:55           0         1.9       0.010
  YS02001765           JUNCTION      0.00   695.49     0  01:55           0         1.9      -0.004
  YS02001767           JUNCTION      0.54   695.83     0  01:55      0.0154         1.9       0.008
  YS02001770           JUNCTION   1473.51  1473.51     0  02:02        2.53        2.57      -0.022
  YS02001774           JUNCTION      0.00   851.73     0  02:04           0       0.645       0.172
  YS02001779           JUNCTION      0.01   851.53     0  02:04    0.000144       0.599      -0.121
  YS02001783           JUNCTION      0.00  1170.58     0  02:00           0        5.19       0.003
  YS02001784           JUNCTION      1.06  1171.55     0  01:59      0.0305        5.22       0.010
  YS02001786           JUNCTION      0.06  1171.58     0  01:59     0.00162        5.22       0.015
  YS02001788           JUNCTION      0.07  1172.70     0  01:59     0.00204        5.22       0.006
  YS02001790           JUNCTION      0.15  1186.02     0  02:01     0.00446        5.22       0.023
  YS02001791           JUNCTION      0.00  1295.02     0  02:03           0        5.22      -0.033
  YS02001793           JUNCTION      0.00  1256.07     0  02:01           0        5.22       0.001
  YS02001882           JUNCTION      0.00    37.00     0  01:49           0      0.0134       5.288
  YS02001884           JUNCTION      0.00    47.92     0  01:48           0      0.0497       5.450
  YS02001887           JUNCTION   1109.35  1109.35     0  02:01        1.73        1.76       0.239
  YS02001890           JUNCTION      0.00  1110.07     0  02:01           0        1.72       0.297
  YS02001895           JUNCTION      0.00   517.84     0  02:10           0        1.45       0.131
  YS02001898           JUNCTION      0.00   517.72     0  02:02           0        1.45       0.006
  YS02001901           JUNCTION      0.00   517.33     0  02:02           0        1.45       0.232
  YS02001904           JUNCTION      0.00   517.55     0  02:03           0        1.46       0.193
  YS02001907           JUNCTION      0.00  2821.36     0  02:02           0         5.3       0.346
  YS02001910           JUNCTION      0.00  1962.23     0  02:02           0        3.75       0.193
  YS02001915           JUNCTION   1315.31  1961.98     0  02:02        2.41        3.78       0.041
  YS02001918           JUNCTION      0.00   651.30     0  02:03           0         1.4       0.011
  YS02001920           JUNCTION      2.87   652.62     0  02:03      0.0827        1.38       0.070
  YS02001923           JUNCTION      0.04   649.16     0  02:03     0.00109        1.29      -0.043
  YS02001926           JUNCTION      0.05   648.67     0  02:03      0.0015        1.27       0.025
  YS02001929           JUNCTION    647.12   647.12     0  02:03        1.27        1.27      -0.038
  YS02006553           JUNCTION      0.00   795.89     0  02:25           0        2.89       0.422
  YS02006556           JUNCTION      0.00   795.56     0  02:25           0         2.9       0.286
  YS02006558           JUNCTION   1507.23  1507.23     0  02:02        2.53        5.31       0.061
  YS02006561           JUNCTION      0.00  1170.31     0  02:00           0        5.19       0.002
  YS02163301           JUNCTION      0.00   909.61     0  01:50           0         3.9       0.042
  YS02163601           JUNCTION      0.11  1300.35     0  01:50     0.00317        5.26       0.097
  YS02164001           JUNCTION      0.00  1298.03     0  01:50           0        5.26       0.043
  CC-1                 OUTFALL       0.00   683.00     0  00:00           0        4.47       0.000
  CC-2                 OUTFALL       0.00   683.00     0  00:00           0        3.84       0.000
  JK-1                 OUTFALL       0.00  1000.00     0  00:00           0        3.57       0.000
  JK-2                 OUTFALL       0.00  1000.00     0  00:00           0      0.0484       0.000
  WSC                  OUTFALL       0.00   555.30     0  02:20           0        6.21       0.000
  CC-storage           STORAGE       0.00  3075.74     0  01:59           0        15.1      -0.090
  JK-storage           STORAGE       0.00  1228.83     0  02:01           0        5.37      -0.004
  
  
  **********************
  Node Surcharge Summary
  **********************
  
  Surcharging occurs when water rises above the top of the highest conduit.
  ---------------------------------------------------------------------
                                               Max. Height   Min. Depth
                                   Hours       Above Crown    Below Rim
  Node                 Type      Surcharged         Meters       Meters
  ---------------------------------------------------------------------
  WS02004404           JUNCTION        0.02          0.022        2.758
  WS02006109           JUNCTION        2.38          0.452        1.368
  WS02006110           JUNCTION        0.85          0.436        1.414
  WS02006112           JUNCTION        1.23          0.091        1.589
  WS02006228           JUNCTION        2.38          0.414        1.786
  WS02006229           JUNCTION        2.38          0.483        1.967
  WS02006230           JUNCTION        0.87          0.409        1.161
  WS02006231           JUNCTION        1.11          0.600        0.930
  WS02006232           JUNCTION        2.40          0.786        0.694
  WS02006234           JUNCTION        1.50          1.231        0.009
  WS02006235           JUNCTION        2.31          0.832        0.458
  WS02006238           JUNCTION        2.37          0.874        0.556
  WS02006239           JUNCTION        2.34          0.788        0.502
  WS02006240           JUNCTION        2.38          0.780        0.610
  WS02006242           JUNCTION        2.39          0.787        0.033
  WS02006243           JUNCTION        2.37          0.643        0.127
  WS02006245           JUNCTION        2.37          0.628        0.222
  WS02006247           JUNCTION        2.37          0.605        0.155
  WS02006248           JUNCTION        2.36          0.380        0.000
  WS02006249           JUNCTION        2.36          0.390        0.000
  WS02006251           JUNCTION        1.24          0.466        0.714
  WS02006252           JUNCTION        2.51          1.100        0.000
  WS02006256           JUNCTION        6.66          2.050        0.000
  YS02001580           JUNCTION        0.93          0.450        0.000
  YS02001583           JUNCTION        0.94          0.500        0.000
  YS02001586           JUNCTION        1.14          0.510        0.000
  YS02001590           JUNCTION        1.24          0.750        0.000
  YS02001593           JUNCTION        1.24          0.840        0.000
  YS02001596           JUNCTION        1.37          1.070        0.000
  YS02001600           JUNCTION        1.51          1.190        0.000
  YS02001601           JUNCTION        1.78          1.440        0.000
  YS02001602           JUNCTION        1.70          1.270        0.000
  YS02001605           JUNCTION        1.66          1.180        0.000
  YS02001607           JUNCTION        1.26          0.647        0.033
  YS02001610           JUNCTION        1.29          0.680        0.000
  YS02001613           JUNCTION        1.26          0.670        0.030
  YS02001616           JUNCTION        1.21          0.610        0.000
  YS02001619           JUNCTION        1.20          0.610        0.000
  YS02001622           JUNCTION        1.20          0.584        0.036
  YS02001625           JUNCTION        1.37          0.780        0.000
  YS02001629           JUNCTION        1.13          0.470        0.000
  YS02001633           JUNCTION        1.41          1.005        0.055
  YS02001641           JUNCTION        1.36          0.957        0.143
  YS02001644           JUNCTION        1.34          0.920        0.000
  YS02001647           JUNCTION        1.15          0.777        0.123
  YS02001649           JUNCTION        1.27          1.016        0.034
  YS02001652           JUNCTION        1.09          0.915        0.215
  YS02001655           JUNCTION        0.88          0.700        0.500
  YS02001658           JUNCTION        0.49          0.605        0.695
  YS02001661           JUNCTION        0.15          0.219        1.171
  YS02001748           JUNCTION        0.38          0.386        0.804
  YS02001751           JUNCTION        0.72          0.543        0.657
  YS02001754           JUNCTION        1.01          0.731        0.419
  YS02001757           JUNCTION        1.34          1.097        0.113
  YS02001759           JUNCTION        1.26          1.097        0.113
  YS02001762           JUNCTION        1.23          1.060        0.090
  YS02001765           JUNCTION        1.20          1.009        0.091
  YS02001767           JUNCTION        1.18          0.980        0.050
  YS02001770           JUNCTION        1.14          0.920        0.000
  YS02001774           JUNCTION        1.21          1.016        0.034
  YS02001779           JUNCTION        0.98          0.680        0.000
  YS02001783           JUNCTION        0.78          0.450        1.150
  YS02001784           JUNCTION        0.75          0.332        1.158
  YS02001786           JUNCTION        0.62          0.083        1.347
  YS02001882           JUNCTION        0.71          0.695        0.135
  YS02001884           JUNCTION        0.72          0.731        0.139
  YS02001887           JUNCTION        0.77          0.814        0.136
  YS02001890           JUNCTION        0.79          0.760        0.000
  YS02001895           JUNCTION        0.70          0.571        0.179
  YS02001898           JUNCTION        0.69          0.549        0.191
  YS02001901           JUNCTION        0.75          0.692        0.178
  YS02001904           JUNCTION        0.74          0.650        0.200
  YS02001907           JUNCTION        1.06          0.950        0.000
  YS02001910           JUNCTION        0.82          1.011        0.089
  YS02001915           JUNCTION        0.71          1.000        0.000
  YS02001918           JUNCTION        0.60          0.810        0.000
  YS02001920           JUNCTION        0.62          1.044        0.096
  YS02001923           JUNCTION        0.23          0.700        0.120
  YS02001926           JUNCTION        0.28          0.780        0.120
  YS02001929           JUNCTION        0.11          0.644        0.136
  YS02006553           JUNCTION        1.09          0.986        0.204
  YS02006556           JUNCTION        0.94          0.938        0.412
  YS02006558           JUNCTION        0.93          0.931        0.469
  YS02006561           JUNCTION        0.56          0.118        1.032
  YS02163301           JUNCTION        1.39          0.925        0.105
  YS02163601           JUNCTION        1.45          1.041        0.039
  YS02164001           JUNCTION        1.36          0.957        0.143
  
  
  *********************
  Node Flooding Summary
  *********************
  
  Flooding refers to all water that overflows a node, whether it ponds or not.
  --------------------------------------------------------------------------
                                                             Total   Maximum
                                 Maximum   Time of Max       Flood    Ponded
                        Hours       Rate    Occurrence      Volume     Depth
  Node                 Flooded       LPS   days hr:min    10^6 ltr    Meters
  --------------------------------------------------------------------------
  WS02006248              0.02     21.59      0  02:20       0.001     0.000
  WS02006249              1.18    101.11      0  01:49       0.275     0.000
  WS02006252              0.01    245.63      0  00:00       0.000     0.000
  WS02006256              1.49    293.19      0  00:00       0.524     0.000
  YS02001580              0.01     39.03      0  01:47       0.000     0.000
  YS02001583              0.01     59.03      0  01:47       0.000     0.000
  YS02001586              0.75    733.95      0  02:04       0.837     0.000
  YS02001590              0.01      0.60      0  01:47       0.000     0.000
  YS02001593              0.01      1.00      0  01:47       0.000     0.000
  YS02001596              0.01      0.43      0  01:47       0.000     0.000
  YS02001600              0.01      0.59      0  01:47       0.000     0.000
  YS02001601              1.05   1733.91      0  02:02       2.391     0.000
  YS02001602              0.93     62.00      0  01:57       0.194     0.000
  YS02001605              0.01      0.11      0  02:03       0.000     0.000
  YS02001610              0.83    952.86      0  02:07       1.337     0.000
  YS02001616              0.05      1.95      0  01:50       0.000     0.000
  YS02001619              0.13    201.72      0  02:03       0.057     0.000
  YS02001625              0.83   1505.06      0  02:07       2.337     0.000
  YS02001629              0.24    257.44      0  02:02       0.097     0.000
  YS02001644              0.40   2159.83      0  02:02       1.375     0.000
  YS02001770              0.10    322.98      0  02:02       0.066     0.000
  YS02001779              0.34    851.28      0  02:04       0.580     0.000
  YS02001890              0.29    593.98      0  02:01       0.263     0.000
  YS02001907              0.54   2821.02      0  02:02       2.495     0.000
  YS02001915              0.01      0.06      0  02:02       0.000     0.000
  YS02001918              0.01     58.08      0  01:52       0.000     0.000
  
  
  **********************
  Storage Volume Summary
  **********************
  
  ------------------------------------------------------------------------------------------------
                         Average    Avg   Evap  Exfil     Maximum    Max    Time of Max    Maximum
                          Volume   Pcnt   Pcnt   Pcnt      Volume   Pcnt     Occurrence    Outflow
  Storage Unit           1000 m³   Full   Loss   Loss     1000 m³   Full    days hr:min        LPS
  ------------------------------------------------------------------------------------------------
  CC-storage               2.777   43.3    0.0    0.0       5.445   84.9       0  02:34    1783.53
  JK-storage               0.165   56.6    0.0    0.0       0.213   73.1       0  02:20    2300.00
  
  
  ***********************
  Outfall Loading Summary
  ***********************
  
  -----------------------------------------------------------
                         Flow       Avg       Max       Total
                         Freq      Flow      Flow      Volume
  Outfall Node           Pcnt       LPS       LPS    10^6 ltr
  -----------------------------------------------------------
  CC-1                  20.84    683.00    683.00       4.473
  CC-2                  18.29    683.00    683.00       3.838
  JK-1                  13.40   1000.00   1000.00       3.566
  JK-2                   0.12   1000.00   1000.00       0.048
  WSC                   99.96    236.48    555.30       6.211
  -----------------------------------------------------------
  System                30.52   3602.48   3366.23      18.137
  
  
  ********************
  Link Flow Summary
  ********************
  
  -----------------------------------------------------------------------------
                                 Maximum  Time of Max   Maximum    Max/    Max/
                                  |Flow|   Occurrence   |Veloc|    Full    Full
  Link                 Type          LPS  days hr:min     m/sec    Flow   Depth
  -----------------------------------------------------------------------------
  1                    CONDUIT    555.30     0  02:20      2.83    0.19    0.30
  WS02003060WS02003069 CONDUIT    555.13     0  02:16      1.65    0.22    0.34
  WS02003066WSF200     CONDUIT    538.85     0  02:17      2.86    0.09    0.22
  WS02003067WS02003066 CONDUIT    538.57     0  02:17      1.21    0.17    0.42
  WS02003069WS02003072 CONDUIT    553.83     0  02:17      1.37    0.27    0.39
  WS02003072WS02003073 CONDUIT    553.71     0  02:19      1.44    1.20    0.37
  WS02004401WS02004402 CONDUIT    554.70     0  02:14      1.04    0.67    0.89
  WS02004402WS02004403 CONDUIT    563.05     0  02:14      1.05    0.81    0.91
  WS02004403WS02004404 CONDUIT    581.93     0  02:15      1.05    0.42    0.96
  WS02004404WS02004405 CONDUIT    612.40     0  02:14      1.19    6.00    0.98
  WS02004405WS02004406 CONDUIT    563.95     0  02:15      1.18    1.11    0.97
  WS02004406WS02004407 CONDUIT    546.90     0  02:14      1.05    0.24    0.63
  WS02004407WS02004409 CONDUIT    543.46     0  02:14      1.56    0.19    0.48
  WS02004409WS02004410 CONDUIT    542.17     0  02:16      1.03    0.70    0.68
  WS02004410WS02004411 CONDUIT    539.92     0  02:16      0.94    0.74    0.69
  WS02004411WS02004412 CONDUIT    539.54     0  02:16      0.93    0.77    0.70
  WS02004412WS02004413 CONDUIT    540.04     0  02:16      0.97    0.36    0.78
  WS02004413WS02003067 CONDUIT    538.39     0  02:17      1.11    0.23    0.59
  WS02006109WS02006110 CONDUIT    562.56     0  02:37      1.12    1.08    1.00
  WS02006110WS02006113 CONDUIT    568.81     0  01:52      1.37    0.52    0.79
  WS02006111WS02006112 CONDUIT    542.41     0  02:39      1.85    0.26    0.67
  WS02006112WS02006115 CONDUIT    545.58     0  03:08      0.85    0.32    0.88
  WS02006113WS02006111 CONDUIT    561.89     0  02:49      2.47    0.67    0.46
  WS02006115WS02006116 CONDUIT    544.92     0  02:14      1.11    0.70    0.78
  WS02006116WS02004401 CONDUIT    552.01     0  02:14      1.06    0.76    0.86
  WS02006228WS02006109 CONDUIT    559.26     0  02:37      1.11    2.44    1.00
  WS02006229WS02006228 CONDUIT    557.67     0  02:37      1.11    1.85    1.00
  WS02006230WS02006229 CONDUIT    557.55     0  02:21      1.45   12.41    1.00
  WS02006231WS02006230 CONDUIT    585.14     0  03:31      1.60    8.88    1.00
  WS02006232WS02006231 CONDUIT    579.10     0  02:42      1.51    1.21    1.00
  WS02006234WS02006232 CONDUIT    578.12     0  02:42      1.50    1.17    1.00
  WS02006235WS02006234 CONDUIT    572.77     0  02:42      1.49    6.04    1.00
  WS02006238WS02006235 CONDUIT    430.78     0  01:50      1.48    0.96    1.00
  WS02006239WS02006238 CONDUIT    429.40     0  01:50      1.12    1.37    1.00
  WS02006240WS02006239 CONDUIT    428.96     0  03:30      1.24    1.35    1.00
  WS02006242WS02006240 CONDUIT    426.58     0  03:30      1.13    1.69    1.00
  WS02006243WS02006242 CONDUIT    425.85     0  03:30      1.40    0.91    1.00
  WS02006245WS02006243 CONDUIT    425.88     0  03:30      1.45    1.26    1.00
  WS02006247WS02006245 CONDUIT    426.36     0  03:30      1.43    3.38    1.00
  WS02006248WS02006247 CONDUIT    427.40     0  03:30      1.44    0.93    1.00
  WS02006249WS02006248 CONDUIT    427.50     0  03:30      1.36    2.34    1.00
  WS02006251WS02006249 CONDUIT    459.02     0  00:00      1.99    1.32    1.00
  WS02006252WS02006251 CONDUIT    409.78     0  02:53      3.87    1.50    1.00
  WS02006256WS02006235 CONDUIT    288.91     0  00:00      4.23    3.06    1.00
  WSF200WS02003060     CONDUIT    539.72     0  02:17      2.07    0.12    0.28
  YS02001580YS02001583 CONDUIT     74.80     0  01:46      0.55    0.29    1.00
  YS02001583YS02001586 CONDUIT    123.86     0  01:46      0.51    0.19    1.00
  YS02001586YS02001590 CONDUIT    318.33     0  02:21      1.24    0.56    1.00
  YS02001590YS02001593 CONDUIT    318.20     0  02:21      1.13    2.00    1.00
  YS02001593YS02001596 CONDUIT    318.07     0  02:29      1.69    0.50    1.00
  YS02001596YS02001600 CONDUIT    318.12     0  02:15      1.26    0.62    1.00
  YS02001600YS02001601 CONDUIT    318.23     0  02:15      1.13    0.55    1.00
  YS02001601YS02001602 CONDUIT    501.69     0  01:46      1.77    1.81    1.00
  YS02001602YS02001605 CONDUIT    501.11     0  01:46      1.77   10.60    1.00
  YS02001605YS02001607 CONDUIT    500.31     0  01:46      1.77    2.74    1.00
  YS02001607YS02001610 CONDUIT    499.11     0  01:45      0.64    0.47    1.00
  YS02001610YS02001613 CONDUIT    617.02     0  02:07      0.79    0.71    1.00
  YS02001613YS02001616 CONDUIT    616.81     0  02:07      0.79    0.53    1.00
  YS02001616YS02001619 CONDUIT    617.14     0  02:07      0.79    1.07    1.00
  YS02001619YS02001622 CONDUIT   1053.93     0  02:06      1.34    1.55    1.00
  YS02001622YS02001625 CONDUIT   1053.65     0  02:05      1.34    0.56    1.00
  YS02001625YS02001629 CONDUIT    908.57     0  01:50      1.16    0.43    1.00
  YS02001629YS02163301 CONDUIT    909.61     0  01:50      1.16    1.12    1.00
  YS02001633YS02163601 CONDUIT   1300.24     0  01:50      1.66    1.36    1.00
  YS02001641YS02001644 CONDUIT   1301.77     0  01:50      1.66    4.21    1.00
  YS02001644YS02001647 CONDUIT   1654.07     0  01:50      2.14    0.97    1.00
  YS02001647YS02001649 CONDUIT   1661.30     0  01:50      2.28    0.88    1.00
  YS02001649YS02001757 CONDUIT   1782.49     0  01:51      2.36    1.08    1.00
  YS02001652YS02001649 CONDUIT   1200.13     0  02:01      1.53    0.59    1.00
  YS02001655YS02001652 CONDUIT   1200.44     0  02:01      1.53    0.58    1.00
  YS02001658YS02001655 CONDUIT   1200.87     0  02:01      1.83    0.51    1.00
  YS02001661YS02001658 CONDUIT   1199.70     0  02:01      2.19    0.47    1.00
  YS02001664YS02001661 CONDUIT   1199.91     0  02:01      2.11    0.38    0.89
  YS02001745YS02001748 CONDUIT    755.15     0  02:01      2.03    0.29    0.98
  YS02001748YS02001751 CONDUIT    755.00     0  02:01      1.61    0.38    1.00
  YS02001751YS02001754 CONDUIT    755.74     0  02:01      1.42    0.36    1.00
  YS02001754YS02001757 CONDUIT    756.09     0  02:01      0.96    0.30    1.00
  YS02001757CaochengTiaoxuchi CONDUIT   3075.74     0  01:59      3.92    1.33    1.00
  YS02001759YS02001757 CONDUIT   1343.94     0  02:01      1.71    0.95    1.00
  YS02001762YS02001759 CONDUIT    695.83     0  01:55      0.89    0.80    1.00
  YS02001765YS02001762 CONDUIT    696.09     0  01:55      0.89    0.65    1.00
  YS02001767YS02001765 CONDUIT    695.49     0  01:55      0.89    0.87    1.00
  YS02001770YS02001767 CONDUIT    695.29     0  01:55      0.89    2.75    1.00
  YS02001774YS02001770 CONDUIT    851.73     0  02:04      1.08    0.54    1.00
  YS02001779YS02001774 CONDUIT    851.52     0  02:04      1.08    0.43    1.00
  YS02001783YS02001784 CONDUIT   1170.49     0  01:59      2.33    1.61    1.00
  YS02001784YS02001785 CONDUIT   1171.53     0  01:59      2.33    2.73    1.00
  YS02001786YS02001788 CONDUIT   1172.63     0  01:59      2.49    2.26    0.89
  YS02001788YS02001790 CONDUIT   1185.86     0  02:01      2.72    0.87    0.84
  YS02001790YS02001791 CONDUIT   1295.02     0  02:03      3.44    1.41    0.70
  YS02001791YS02001793 CONDUIT   1256.07     0  02:01      6.48    0.54    0.45
  YS02001793JiankangQianchi CONDUIT   1228.83     0  02:01      2.39    0.10    0.65
  YS02001882YS02001884 CONDUIT     37.00     0  01:49      0.17    0.04    1.00
  YS02001884YS02001887 CONDUIT     47.92     0  01:48      0.13    0.06    1.00
  YS02001887YS02001890 CONDUIT   1110.07     0  02:01      1.41    1.90    1.00
  YS02001890YS02001895 CONDUIT    517.84     0  02:10      0.66    0.24    1.00
  YS02001895YS02001898 CONDUIT    517.72     0  02:02      0.66    0.90    1.00
  YS02001898YS02001901 CONDUIT    517.33     0  02:02      0.66    0.33    1.00
  YS02001901YS02001904 CONDUIT    517.55     0  02:03      0.66    0.80    1.00
  YS02001904YS02001907 CONDUIT    517.79     0  02:03      0.66    0.18    1.00
  YS02001907YS02006553 CONDUIT    795.89     0  02:25      0.88    0.94    1.00
  YS02001910YS02001907 CONDUIT   1962.77     0  02:02      2.50    1.11    1.00
  YS02001915YS02001910 CONDUIT   1962.23     0  02:02      2.50    0.97    1.00
  YS02001918YS02001915 CONDUIT    650.56     0  02:03      0.83    0.36    1.00
  YS02001920YS02001918 CONDUIT    651.30     0  02:03      0.83    0.63    1.00
  YS02001923YS02001920 CONDUIT    649.75     0  02:03      0.83    0.29    1.00
  YS02001926YS02001923 CONDUIT    649.12     0  02:03      0.94    0.93    1.00
  YS02001929YS02001926 CONDUIT    648.62     0  02:03      1.08    0.31    1.00
  YS02006553YS02006556 CONDUIT    795.56     0  02:25      1.01    0.68    1.00
  YS02006556YS02006558 CONDUIT    796.77     0  02:25      1.01    0.63    1.00
  YS02006558YS02006561 CONDUIT   1170.31     0  02:00      4.14    2.59    1.00
  YS02006561YS02001783 CONDUIT   1170.58     0  02:00      2.33    0.61    1.00
  YS02163301YS02001633 CONDUIT    909.19     0  01:50      1.16    0.85    1.00
  YS02163601YS02164001 CONDUIT   1298.03     0  01:50      1.65    1.15    1.00
  YS02164001YS02001641 CONDUIT   1299.44     0  01:50      1.65    1.77    1.00
  CC-R1                PUMP       683.00     0  00:00              1.00
  CC-R2                PUMP       683.00     0  00:00              1.00
  CC-S1                PUMP       200.00     0  00:00              1.00
  CC-S2                PUMP       200.00     0  00:00              1.00
  JK-R1                PUMP      1000.00     0  00:00              1.00
  JK-R2                PUMP      1000.00     0  00:00              1.00
  JK-S                 PUMP       300.00     0  00:00              1.00
  
  
  ***************************
  Flow Classification Summary
  ***************************
  
  -------------------------------------------------------------------------------------
                      Adjusted    ---------- Fraction of Time in Flow Class ---------- 
                       /Actual         Up    Down  Sub   Sup   Up    Down  Norm  Inlet 
  Conduit               Length    Dry  Dry   Dry   Crit  Crit  Crit  Crit  Ltd   Ctrl  
  -------------------------------------------------------------------------------------
  1                       1.00   0.00  0.00  0.00  0.00  1.00  0.00  0.00  0.35  0.00
  WS02003060WS02003069    1.00   0.00  0.00  0.00  0.97  0.03  0.00  0.00  0.63  0.00
  WS02003066WSF200        1.00   0.06  0.00  0.00  0.00  0.94  0.00  0.00  0.81  0.00
  WS02003067WS02003066    1.00   0.05  0.00  0.00  0.94  0.00  0.00  0.00  0.00  0.00
  WS02003069WS02003072    1.00   0.00  0.00  0.00  0.99  0.01  0.00  0.00  0.68  0.00
  WS02003072WS02003073    1.00   0.00  0.00  0.00  0.00  0.00  0.00  1.00  0.00  0.00
  WS02004401WS02004402    1.00   0.02  0.00  0.00  0.98  0.00  0.00  0.00  0.00  0.00
  WS02004402WS02004403    1.00   0.02  0.00  0.00  0.97  0.00  0.00  0.00  0.00  0.00
  WS02004403WS02004404    1.00   0.00  0.03  0.00  0.97  0.00  0.00  0.00  0.00  0.00
  WS02004404WS02004405    1.00   0.00  0.00  0.00  1.00  0.00  0.00  0.00  0.02  0.00
  WS02004405WS02004406    1.00   0.00  0.00  0.00  1.00  0.00  0.00  0.00  0.00  0.00
  WS02004406WS02004407    1.00   0.00  0.04  0.00  0.96  0.00  0.00  0.00  0.00  0.00
  WS02004407WS02004409    1.00   0.04  0.00  0.00  0.95  0.01  0.00  0.00  0.95  0.00
  WS02004409WS02004410    1.00   0.04  0.00  0.00  0.96  0.00  0.00  0.00  0.00  0.00
  WS02004410WS02004411    1.00   0.04  0.00  0.00  0.96  0.00  0.00  0.00  0.00  0.00
  WS02004411WS02004412    1.00   0.04  0.00  0.00  0.96  0.00  0.00  0.00  0.00  0.00
  WS02004412WS02004413    1.00   0.04  0.00  0.00  0.95  0.00  0.00  0.00  0.00  0.00
  WS02004413WS02003067    1.00   0.04  0.01  0.00  0.00  0.00  0.95  0.00  0.00  0.00
  WS02006109WS02006110    1.00   0.00  0.01  0.00  0.98  0.00  0.01  0.00  0.00  0.00
  WS02006110WS02006113    1.00   0.01  0.01  0.00  0.98  0.00  0.00  0.00  0.00  0.00
  WS02006111WS02006112    1.00   0.02  0.00  0.00  0.98  0.00  0.00  0.00  0.98  0.00
  WS02006112WS02006115    1.00   0.02  0.00  0.00  0.97  0.00  0.00  0.00  0.00  0.00
  WS02006113WS02006111    1.00   0.02  0.00  0.00  0.00  0.98  0.00  0.00  0.18  0.00
  WS02006115WS02006116    1.00   0.02  0.00  0.00  0.97  0.00  0.00  0.01  0.00  0.00
  WS02006116WS02004401    1.00   0.02  0.00  0.00  0.98  0.00  0.00  0.00  0.00  0.00
  WS02006228WS02006109    1.00   0.00  0.00  0.00  1.00  0.00  0.00  0.00  0.00  0.00
  WS02006229WS02006228    1.00   0.00  0.00  0.00  0.99  0.00  0.00  0.01  0.00  0.00
  WS02006230WS02006229    1.00   0.00  0.00  0.00  0.99  0.00  0.00  0.01  0.00  0.00
  WS02006231WS02006230    1.00   0.00  0.00  0.00  0.31  0.00  0.69  0.00  0.00  0.00
  WS02006232WS02006231    1.00   0.00  0.00  0.00  0.98  0.00  0.01  0.00  0.00  0.00
  WS02006234WS02006232    1.00   0.00  0.00  0.00  1.00  0.00  0.00  0.00  0.07  0.00
  WS02006235WS02006234    1.00   0.00  0.00  0.00  0.90  0.00  0.10  0.00  0.00  0.00
  WS02006238WS02006235    1.00   0.00  0.00  0.00  1.00  0.00  0.00  0.00  0.00  0.00
  WS02006239WS02006238    1.00   0.00  0.00  0.00  1.00  0.00  0.00  0.00  0.17  0.00
  WS02006240WS02006239    1.00   0.00  0.00  0.00  0.75  0.00  0.00  0.25  0.03  0.00
  WS02006242WS02006240    1.00   0.00  0.00  0.00  0.98  0.00  0.01  0.00  0.00  0.00
  WS02006243WS02006242    1.00   0.00  0.00  0.00  0.98  0.00  0.00  0.01  0.42  0.00
  WS02006245WS02006243    1.00   0.00  0.00  0.00  0.86  0.00  0.00  0.14  0.01  0.00
  WS02006247WS02006245    1.00   0.00  0.00  0.00  0.98  0.00  0.00  0.02  0.00  0.00
  WS02006248WS02006247    1.00   0.00  0.00  0.00  0.98  0.00  0.00  0.02  0.33  0.00
  WS02006249WS02006248    1.00   0.00  0.00  0.00  0.58  0.00  0.42  0.00  0.00  0.00
  WS02006251WS02006249    1.00   0.00  0.00  0.00  0.99  0.01  0.00  0.00  0.44  0.00
  WS02006252WS02006251    1.00   0.00  0.48  0.00  0.15  0.00  0.37  0.00  0.00  0.00
  WS02006256WS02006235    1.00   0.00  0.00  0.00  0.99  0.01  0.00  0.00  0.00  0.00
  WSF200WS02003060        1.00   0.00  0.06  0.00  0.19  0.75  0.00  0.00  0.53  0.00
  YS02001580YS02001583    1.00   0.22  0.54  0.00  0.25  0.00  0.00  0.00  0.63  0.00
  YS02001583YS02001586    1.00   0.40  0.30  0.00  0.30  0.00  0.00  0.00  0.63  0.00
  YS02001586YS02001590    1.00   0.13  0.00  0.00  0.46  0.04  0.00  0.38  0.34  0.00
  YS02001590YS02001593    1.00   0.13  0.01  0.00  0.17  0.00  0.70  0.00  0.00  0.00
  YS02001593YS02001596    1.00   0.13  0.00  0.00  0.19  0.01  0.00  0.67  0.02  0.00
  YS02001596YS02001600    1.00   0.13  0.00  0.00  0.24  0.01  0.00  0.62  0.04  0.00
  YS02001600YS02001601    1.00   0.13  0.01  0.00  0.86  0.00  0.00  0.00  0.57  0.00
  YS02001601YS02001602    1.00   0.13  0.01  0.00  0.87  0.00  0.00  0.00  0.00  0.00
  YS02001602YS02001605    1.00   0.13  0.00  0.00  0.87  0.00  0.00  0.00  0.00  0.00
  YS02001605YS02001607    1.00   0.13  0.00  0.00  0.87  0.00  0.00  0.00  0.00  0.00
  YS02001607YS02001610    1.00   0.13  0.00  0.00  0.86  0.00  0.00  0.00  0.01  0.00
  YS02001610YS02001613    1.00   0.13  0.00  0.00  0.87  0.00  0.00  0.00  0.00  0.00
  YS02001613YS02001616    1.00   0.13  0.00  0.00  0.87  0.00  0.00  0.00  0.00  0.00
  YS02001616YS02001619    1.00   0.13  0.00  0.00  0.87  0.00  0.00  0.00  0.00  0.00
  YS02001619YS02001622    1.00   0.13  0.00  0.00  0.87  0.00  0.00  0.00  0.27  0.00
  YS02001622YS02001625    1.00   0.13  0.00  0.00  0.87  0.00  0.00  0.00  0.03  0.00
  YS02001625YS02001629    1.00   0.13  0.04  0.00  0.22  0.00  0.62  0.00  0.00  0.00
  YS02001629YS02163301    1.00   0.14  0.01  0.00  0.85  0.00  0.00  0.00  0.00  0.00
  YS02001633YS02163601    1.00   0.00  0.01  0.00  0.99  0.00  0.00  0.00  0.14  0.00
  YS02001641YS02001644    1.00   0.00  0.01  0.00  0.99  0.00  0.00  0.00  0.00  0.00
  YS02001644YS02001647    1.00   0.00  0.16  0.00  0.84  0.00  0.00  0.00  0.00  0.00
  YS02001647YS02001649    1.00   0.00  0.16  0.00  0.62  0.22  0.00  0.00  0.56  0.00
  YS02001649YS02001757    1.00   0.00  0.00  0.00  0.88  0.12  0.00  0.00  0.39  0.00
  YS02001652YS02001649    1.00   0.00  0.00  0.00  0.97  0.03  0.00  0.00  0.69  0.00
  YS02001655YS02001652    1.00   0.00  0.00  0.00  0.25  0.01  0.00  0.74  0.05  0.00
  YS02001658YS02001655    1.00   0.00  0.14  0.00  0.72  0.14  0.00  0.00  0.62  0.00
  YS02001661YS02001658    1.00   0.14  0.00  0.00  0.56  0.30  0.00  0.00  0.64  0.00
  YS02001664YS02001661    1.00   0.13  0.00  0.00  0.80  0.08  0.00  0.00  0.83  0.00
  YS02001745YS02001748    1.00   0.00  0.00  0.00  0.17  0.00  0.00  0.83  0.04  0.00
  YS02001748YS02001751    1.00   0.00  0.00  0.00  0.88  0.12  0.00  0.00  0.72  0.00
  YS02001751YS02001754    1.00   0.00  0.00  0.00  0.23  0.01  0.00  0.76  0.03  0.00
  YS02001754YS02001757    1.00   0.00  0.00  0.00  1.00  0.00  0.00  0.00  0.74  0.00
  YS02001757CaochengTiaoxuchi    1.00   0.00  0.00  0.00  1.00  0.00  0.00  0.00  0.59  0.00
  YS02001759YS02001757    1.00   0.00  0.00  0.00  0.98  0.02  0.00  0.00  0.49  0.00
  YS02001762YS02001759    1.00   0.00  0.00  0.00  1.00  0.00  0.00  0.00  0.05  0.00
  YS02001765YS02001762    1.00   0.00  0.00  0.00  1.00  0.00  0.00  0.00  0.62  0.00
  YS02001767YS02001765    1.00   0.00  0.00  0.00  1.00  0.00  0.00  0.00  0.01  0.00
  YS02001770YS02001767    1.00   0.00  0.00  0.00  1.00  0.00  0.00  0.00  0.00  0.00
  YS02001774YS02001770    1.00   0.00  0.13  0.00  0.71  0.00  0.16  0.00  0.02  0.00
  YS02001779YS02001774    1.00   0.00  0.00  0.00  1.00  0.00  0.00  0.00  0.71  0.00
  YS02001783YS02001784    1.00   0.00  0.16  0.00  0.84  0.00  0.00  0.00  0.54  0.00
  YS02001784YS02001785    1.00   0.00  0.00  0.00  1.00  0.00  0.00  0.00  0.15  0.00
  YS02001786YS02001788    1.00   0.00  0.00  0.00  0.79  0.21  0.00  0.00  0.00  0.00
  YS02001788YS02001790    1.00   0.00  0.00  0.00  0.21  0.79  0.00  0.00  0.78  0.00
  YS02001790YS02001791    1.00   0.00  0.00  0.00  0.01  0.99  0.00  0.00  0.16  0.00
  YS02001791YS02001793    1.00   0.00  0.00  0.00  0.00  1.00  0.00  0.00  0.02  0.00
  YS02001793JiankangQianchi    1.00   0.00  0.00  0.00  0.99  0.01  0.00  0.00  0.92  0.00
  YS02001882YS02001884    1.00   0.14  0.01  0.00  0.85  0.00  0.00  0.00  0.00  0.00
  YS02001884YS02001887    1.00   0.06  0.05  0.00  0.89  0.00  0.00  0.00  0.00  0.00
  YS02001887YS02001890    1.00   0.00  0.00  0.00  0.97  0.00  0.03  0.00  0.00  0.00
  YS02001890YS02001895    1.00   0.00  0.15  0.00  0.85  0.00  0.00  0.00  0.00  0.00
  YS02001895YS02001898    1.00   0.15  0.00  0.00  0.83  0.00  0.01  0.00  0.00  0.00
  YS02001898YS02001901    1.00   0.15  0.00  0.00  0.85  0.00  0.00  0.00  0.01  0.00
  YS02001901YS02001904    1.00   0.15  0.00  0.00  0.85  0.00  0.00  0.00  0.00  0.00
  YS02001904YS02001907    1.00   0.00  0.15  0.00  0.85  0.00  0.00  0.00  0.00  0.00
  YS02001907YS02006553    1.00   0.00  0.02  0.00  0.98  0.00  0.00  0.00  0.00  0.00
  YS02001910YS02001907    1.00   0.00  0.00  0.00  0.97  0.00  0.00  0.03  0.12  0.00
  YS02001915YS02001910    1.00   0.00  0.00  0.00  0.97  0.03  0.00  0.00  0.13  0.00
  YS02001918YS02001915    1.00   0.00  0.01  0.00  0.98  0.02  0.00  0.00  0.70  0.00
  YS02001920YS02001918    1.00   0.00  0.01  0.00  0.99  0.00  0.00  0.00  0.00  0.00
  YS02001923YS02001920    1.00   0.00  0.00  0.00  1.00  0.00  0.00  0.00  0.89  0.00
  YS02001926YS02001923    1.00   0.00  0.07  0.00  0.09  0.00  0.84  0.00  0.00  0.00
  YS02001929YS02001926    1.00   0.00  0.13  0.00  0.87  0.00  0.00  0.00  0.79  0.00
  YS02006553YS02006556    1.00   0.01  0.00  0.00  0.99  0.00  0.00  0.00  0.03  0.00
  YS02006556YS02006558    1.00   0.00  0.00  0.00  1.00  0.00  0.00  0.00  0.00  0.00
  YS02006558YS02006561    1.00   0.16  0.00  0.00  0.08  0.75  0.00  0.00  0.17  0.00
  YS02006561YS02001783    1.00   0.16  0.00  0.00  0.13  0.71  0.00  0.00  0.65  0.00
  YS02163301YS02001633    1.00   0.00  0.14  0.00  0.86  0.00  0.00  0.00  0.00  0.00
  YS02163601YS02164001    1.00   0.00  0.08  0.00  0.92  0.00  0.00  0.00  0.00  0.00
  YS02164001YS02001641    1.00   0.01  0.07  0.00  0.92  0.00  0.00  0.00  0.05  0.00
  
  
  *************************
  Conduit Surcharge Summary
  *************************
  
  ----------------------------------------------------------------------------
                                                           Hours        Hours 
                         --------- Hours Full --------   Above Full   Capacity
  Conduit                Both Ends  Upstream  Dnstream   Normal Flow   Limited
  ----------------------------------------------------------------------------
  WS02003072WS02003073        0.01      0.01      0.01      1.55         0.01
  WS02004403WS02004404        0.01      0.01      0.01      0.01         0.01
  WS02004404WS02004405        0.01      0.01      0.01      4.13         0.01
  WS02004405WS02004406        0.01      0.01      0.01      0.94         0.01
  WS02006109WS02006110        0.84      0.84      2.40      1.06         0.01
  WS02006110WS02006113        0.01      0.01      2.39      0.01         0.01
  WS02006111WS02006112        0.01      0.01      2.55      0.01         0.01
  WS02006112WS02006115        0.01      0.01      1.23      0.01         0.01
  WS02006228WS02006109        2.38      2.40      2.38      2.75         2.38
  WS02006229WS02006228        2.38      2.38      2.38      2.50         2.36
  WS02006230WS02006229        2.42      2.47      2.42      4.94         2.42
  WS02006231WS02006230        0.87      0.87      1.20      4.49         0.01
  WS02006232WS02006231        1.11      1.11      2.40      1.20         0.01
  WS02006234WS02006232        2.29      2.29      2.40      1.18         1.15
  WS02006235WS02006234        1.49      1.50      2.30      4.24         0.03
  WS02006238WS02006235        2.33      2.33      2.40      0.01         0.02
  WS02006239WS02006238        2.37      2.39      2.37      2.41         2.13
  WS02006240WS02006239        2.34      2.38      2.34      2.41         1.98
  WS02006242WS02006240        2.38      2.38      2.40      2.52         0.01
  WS02006243WS02006242        2.37      2.37      2.39      0.01         0.08
  WS02006245WS02006243        2.37      2.37      2.37      1.48         1.49
  WS02006247WS02006245        2.37      2.37      2.37      4.05         2.34
  WS02006248WS02006247        2.36      2.36      2.37      0.01         0.09
  WS02006249WS02006248        2.36      2.36      2.36      3.99         0.01
  WS02006251WS02006249        2.35      2.35      2.36      2.46         2.24
  WS02006252WS02006251        2.50      2.50      2.50      2.50         0.01
  WS02006256WS02006235        4.28      4.35      6.61      1.49         0.01
  YS02001580YS02001583        0.93      0.93      1.01      0.01         0.01
  YS02001583YS02001586        0.94      0.94      1.14      0.01         0.01
  YS02001586YS02001590        1.15      1.15      1.24      0.01         0.01
  YS02001590YS02001593        1.24      1.24      1.26      1.26         0.01
  YS02001593YS02001596        1.26      1.26      1.37      0.01         0.01
  YS02001596YS02001600        1.42      1.42      1.51      0.01         0.01
  YS02001600YS02001601        1.55      1.55      1.78      0.01         0.01
  YS02001601YS02001602        1.70      1.70      1.82      1.50         0.01
  YS02001602YS02001605        1.66      1.66      1.70      2.51         0.01
  YS02001605YS02001607        1.62      1.66      1.63      1.72         1.60
  YS02001607YS02001610        1.26      1.26      1.29      0.01         0.01
  YS02001610YS02001613        1.26      1.26      1.29      0.01         0.01
  YS02001613YS02001616        1.21      1.21      1.26      0.01         0.01
  YS02001616YS02001619        1.20      1.20      1.21      0.12         0.11
  YS02001619YS02001622        1.20      1.20      1.20      1.16         1.03
  YS02001622YS02001625        1.20      1.20      1.37      0.01         0.01
  YS02001625YS02001629        1.13      1.13      1.37      0.01         0.01
  YS02001629YS02163301        1.38      1.38      1.39      0.08         0.11
  YS02001633YS02163601        1.41      1.41      1.45      0.12         0.19
  YS02001641YS02001644        1.34      1.36      1.34      1.85         1.31
  YS02001644YS02001647        1.15      1.15      1.34      0.01         0.01
  YS02001647YS02001649        1.15      1.15      1.27      0.01         0.01
  YS02001649YS02001757        1.27      1.27      1.34      0.08         0.04
  YS02001652YS02001649        1.11      1.11      1.27      0.01         0.01
  YS02001655YS02001652        0.88      0.88      1.09      0.01         0.01
  YS02001658YS02001655        0.49      0.49      0.88      0.01         0.01
  YS02001661YS02001658        0.15      0.15      0.49      0.01         0.01
  YS02001664YS02001661        0.01      0.01      0.21      0.01         0.01
  YS02001745YS02001748        0.01      0.01      0.38      0.01         0.01
  YS02001748YS02001751        0.45      0.45      0.72      0.01         0.01
  YS02001751YS02001754        0.72      0.72      1.01      0.01         0.01
  YS02001754YS02001757        1.06      1.06      1.34      0.01         0.01
  YS02001757CaochengTiaoxuchi        1.34      1.34      2.36      0.46         0.46
  YS02001759YS02001757        1.26      1.26      1.34      0.01         0.01
  YS02001762YS02001759        1.23      1.23      1.26      0.01         0.02
  YS02001765YS02001762        1.20      1.20      1.23      0.01         0.01
  YS02001767YS02001765        1.18      1.18      1.20      0.01         0.02
  YS02001770YS02001767        1.17      1.17      1.18      0.76         0.69
  YS02001774YS02001770        1.14      1.14      1.21      0.01         0.01
  YS02001779YS02001774        0.98      0.98      1.21      0.01         0.01
  YS02001783YS02001784        0.75      0.78      0.75      0.98         0.75
  YS02001784YS02001785        0.62      0.75      0.62      1.32         0.62
  YS02001786YS02001788        0.01      0.62      0.01      1.13         0.01
  YS02001790YS02001791        0.01      0.01      0.01      0.73         0.01
  YS02001793JiankangQianchi        0.01      0.01      7.70      0.01         0.01
  YS02001882YS02001884        0.71      0.71      0.72      0.01         0.01
  YS02001884YS02001887        0.75      0.75      0.77      0.01         0.01
  YS02001887YS02001890        0.79      0.79      0.80      0.21         0.01
  YS02001890YS02001895        0.70      0.70      0.82      0.01         0.01
  YS02001895YS02001898        0.69      0.69      0.70      0.01         0.01
  YS02001898YS02001901        0.70      0.70      0.75      0.01         0.01
  YS02001901YS02001904        0.74      0.74      0.75      0.01         0.01
  YS02001904YS02001907        0.74      0.74      1.09      0.01         0.01
  YS02001907YS02006553        1.35      1.35      1.44      0.01         0.01
  YS02001910YS02001907        0.82      0.82      1.06      0.08         0.09
  YS02001915YS02001910        0.71      0.71      0.82      0.01         0.01
  YS02001918YS02001915        0.60      0.60      0.71      0.01         0.01
  YS02001920YS02001918        0.60      0.60      0.62      0.01         0.01
  YS02001923YS02001920        0.55      0.55      0.62      0.01         0.01
  YS02001926YS02001923        0.23      0.23      0.28      0.01         0.01
  YS02001929YS02001926        0.11      0.11      0.28      0.01         0.01
  YS02006553YS02006556        0.94      0.94      1.09      0.01         0.01
  YS02006556YS02006558        1.02      1.02      1.13      0.01         0.01
  YS02006558YS02006561        0.64      0.93      0.64      1.25         0.64
  YS02006561YS02001783        0.56      0.56      0.78      0.01         0.01
  YS02163301YS02001633        1.39      1.39      1.43      0.01         0.01
  YS02163601YS02164001        1.36      1.36      1.45      0.09         0.01
  YS02164001YS02001641        1.36      1.36      1.36      0.80         0.72
  
  
  ***************
  Pumping Summary
  ***************
  
  ---------------------------------------------------------------------------------------------------------
                                                  Min       Avg       Max     Total     Power    % Time Off
                        Percent   Number of      Flow      Flow      Flow    Volume     Usage    Pump Curve
  Pump                 Utilized   Start-Ups       LPS       LPS       LPS  10^6 ltr     Kw-hr    Low   High
  ---------------------------------------------------------------------------------------------------------
  CC-R1                   22.74           2      0.00    683.00    683.00     4.473     87.00    0.0    4.6
  CC-R2                   19.51           2      0.00    683.00    683.00     3.838     75.31    0.0    5.3
  CC-S1                   45.96           5      0.00    200.00    200.00     2.647     14.33    0.0    0.0
  CC-S2                   37.47           5      0.00    200.00    200.00     2.158     11.50    0.0    0.0
  JK-R1                   12.38          19      0.00   1000.00   1000.00     3.565     43.34    0.0    0.0
  JK-R2                    0.16           1      0.00   1000.00   1000.00     0.047      0.36    0.0    0.0
  JK-S                    18.63          25      0.00    300.00    300.00     1.610     21.11    0.0    0.0
  

  Analysis begun on:  Wed Apr 23 23:55:40 2025
  Analysis ended on:  Wed Apr 23 23:55:41 2025
  Total elapsed time: 00:00:01