
  EPA STORM WATER MANAGEMENT MODEL - VERSION 5.2 (Build 5.2.4)
  PYSWMM TOOLKIT API - VERSION v1.0 (2023-11-27)
  ------------------------------------------------------------

  WARNING 04: minimum elevation drop used for Conduit WS02004404WS02004405
  WARNING 03: negative offset ignored for Link YS02001904YS02001907
  
  ****************
  Analysis Options
  ****************
  Flow Units ............... LPS
  Process Models:
    Rainfall/Runoff ........ YES
    RDII ................... NO
    Snowmelt ............... NO
    Groundwater ............ NO
    Flow Routing ........... YES
    Ponding Allowed ........ NO
    Water Quality .......... NO
  Infiltration Method ...... HORTON
  Flow Routing Method ...... DYNWAVE
  Surcharge Method ......... EXTRAN
  Starting Date ............ 08/28/2015 08:00:00
  Ending Date .............. 08/28/2015 16:00:00
  Antecedent Dry Days ...... 8.0
  Report Time Step ......... 00:01:00
  Wet Time Step ............ 00:01:00
  Dry Time Step ............ 00:01:00
  Routing Time Step ........ 30.00 sec
  Variable Time Step ....... YES
  Maximum Trials ........... 8
  Number of Threads ........ 4
  Head Tolerance ........... 0.001500 m
  
  
  **************************        Volume         Depth
  Runoff Quantity Continuity     hectare-m            mm
  **************************     ---------       -------
  Total Precipitation ......         1.639        49.421
  Evaporation Loss .........         0.000         0.000
  Infiltration Loss ........         0.096         2.883
  Surface Runoff ...........         1.511        45.557
  Final Storage ............         0.033         0.994
  Continuity Error (%) .....        -0.023
  
  
  **************************        Volume        Volume
  Flow Routing Continuity        hectare-m      10^6 ltr
  **************************     ---------     ---------
  Dry Weather Inflow .......         0.025         0.251
  Wet Weather Inflow .......         1.511        15.111
  Groundwater Inflow .......         0.000         0.000
  RDII Inflow ..............         0.000         0.000
  External Inflow ..........         0.083         0.834
  External Outflow .........         1.222        12.221
  Flooding Loss ............         0.385         3.852
  Evaporation Loss .........         0.000         0.000
  Exfiltration Loss ........         0.000         0.000
  Initial Stored Volume ....         0.243         2.431
  Final Stored Volume ......         0.258         2.575
  Continuity Error (%) .....        -0.116
  
  
  *************************
  Highest Continuity Errors
  *************************
  Node YS02001583 (-5.60%)
  Node YS02001884 (5.13%)
  
  
  ***************************
  Time-Step Critical Elements
  ***************************
  Link WS02006252WS02006251 (53.58%)
  Link WS02006238WS02006235 (13.16%)
  Link WS02003066WSF200 (10.23%)
  Link WS02004404WS02004405 (6.61%)
  Link YS02001791YS02001793 (5.48%)
  
  
  ********************************
  Highest Flow Instability Indexes
  ********************************
  Link WS02006113WS02006111 (38)
  Link WS02006111WS02006112 (19)
  Link WS02006252WS02006251 (12)
  Link WS02006256WS02006235 (12)
  Link WS02006238WS02006235 (10)
  
  
  *********************************
  Most Frequent Nonconverging Nodes
  *********************************
  Node CC-1 (10.92%)
  Node CC-2 (10.92%)
  Node JK-1 (10.92%)
  Node JK-2 (10.92%)
  Node WSC (10.92%)
  
  
  *************************
  Routing Time Step Summary
  *************************
  Minimum Time Step           :     0.02 sec
  Average Time Step           :     1.74 sec
  Maximum Time Step           :     6.43 sec
  % of Time in Steady State   :     0.00
  Average Iterations per Step :     2.90
  % of Steps Not Converging   :    10.92
  Time Step Frequencies       :
     30.000 - 13.228 sec      :     0.00 %
     13.228 -  5.833 sec      :     2.33 %
      5.833 -  2.572 sec      :    23.76 %
      2.572 -  1.134 sec      :    15.48 %
      1.134 -  0.500 sec      :    58.43 %
  
  
  ***************************
  Subcatchment Runoff Summary
  ***************************
  
  ------------------------------------------------------------------------------------------------------------------------------
                            Total      Total      Total      Total     Imperv       Perv      Total       Total     Peak  Runoff
                           Precip      Runon       Evap      Infil     Runoff     Runoff     Runoff      Runoff   Runoff   Coeff
  Subcatchment                 mm         mm         mm         mm         mm         mm         mm    10^6 ltr      LPS
  ------------------------------------------------------------------------------------------------------------------------------
  sub60                     49.42       0.00       0.00       1.73      42.29       4.21      46.49        0.61   456.23   0.941
  sub61                     49.42       0.00       0.00       2.50      39.89       5.90      45.79        0.84   632.62   0.926
  sub62                     49.42       0.00       0.00       1.15      44.18       2.81      46.99        1.29   885.01   0.951
  sub63                     49.42       0.00       0.00       4.65      34.12       9.69      43.80        0.99   700.35   0.886
  sub64                     49.42       0.00       0.00       2.35      40.80       5.07      45.87        1.10   716.65   0.928
  sub65                     49.42       0.00       0.00       2.03      41.74       4.40      46.14        1.27   798.36   0.934
  sub66                     49.42       0.00       0.00       5.77      34.01       8.57      42.58        1.99  1022.54   0.862
  sub67                     49.42       0.00       0.00       1.11      44.22       2.85      47.07        0.88   694.47   0.952
  sub68                     49.42       0.00       0.00       2.08      41.31       4.85      46.16        1.27   906.21   0.934
  sub69                     49.42       0.00       0.00       1.84      41.90       5.58      47.47        1.76  1062.94   0.961
  sub70                     49.42       0.00       0.00       6.16      32.45      10.64      43.09        1.24   572.98   0.872
  sub71                     49.42       0.00       0.00       1.18      44.14       2.77      46.91        1.23   775.69   0.949
  sub72                     49.42       0.00       0.00       1.05      44.56       2.41      46.97        0.65   370.75   0.950
  
  
  ******************
  Node Depth Summary
  ******************
  
  ---------------------------------------------------------------------------------
                                 Average  Maximum  Maximum  Time of Max    Reported
                                   Depth    Depth      HGL   Occurrence   Max Depth
  Node                 Type       Meters   Meters   Meters  days hr:min      Meters
  ---------------------------------------------------------------------------------
  WS02003060           JUNCTION     0.21     0.38     5.31     0  02:31        0.38
  WS02003066           JUNCTION     0.18     0.30     5.85     0  03:03        0.30
  WS02003067           JUNCTION     0.47     0.70     6.02     0  03:03        0.70
  WS02003069           JUNCTION     0.24     0.43     5.01     0  03:04        0.43
  WS02003072           JUNCTION     0.30     0.50     4.87     0  03:04        0.50
  WS02003073           JUNCTION     0.17     0.30     4.36     0  03:05        0.30
  WS02004401           JUNCTION     0.54     0.85     6.85     0  03:00        0.85
  WS02004402           JUNCTION     0.57     0.88     6.84     0  03:01        0.88
  WS02004403           JUNCTION     0.59     0.89     6.82     0  03:01        0.89
  WS02004404           JUNCTION     0.67     0.96     6.81     0  03:01        0.96
  WS02004405           JUNCTION     0.67     0.95     6.80     0  03:01        0.95
  WS02004406           JUNCTION     0.68     0.96     6.79     0  03:01        0.95
  WS02004407           JUNCTION     0.15     0.30     6.61     0  03:01        0.29
  WS02004409           JUNCTION     0.35     0.66     6.43     0  03:01        0.66
  WS02004410           JUNCTION     0.37     0.68     6.40     0  03:02        0.68
  WS02004411           JUNCTION     0.40     0.69     6.37     0  03:02        0.69
  WS02004412           JUNCTION     0.42     0.70     6.34     0  03:02        0.70
  WS02004413           JUNCTION     0.58     0.86     6.33     0  03:03        0.86
  WS02006109           JUNCTION     0.60     1.22     7.84     0  02:37        0.99
  WS02006110           JUNCTION     0.60     1.25     7.83     0  02:37        0.93
  WS02006111           JUNCTION     0.16     0.29     7.00     0  03:48        0.29
  WS02006112           JUNCTION     0.69     1.14     7.02     0  02:38        1.05
  WS02006113           JUNCTION     0.24     0.46     7.35     0  03:30        0.46
  WS02006115           JUNCTION     0.42     0.75     6.89     0  03:00        0.75
  WS02006116           JUNCTION     0.51     0.83     6.87     0  03:00        0.83
  WS02006228           JUNCTION     0.58     1.18     7.83     0  02:47        1.07
  WS02006229           JUNCTION     0.55     1.23     7.92     0  02:47        1.07
  WS02006230           JUNCTION     0.54     1.42     8.17     0  02:43        1.18
  WS02006231           JUNCTION     0.37     1.55     8.67     0  02:47        1.20
  WS02006232           JUNCTION     0.50     1.53     8.57     0  02:31        1.53
  WS02006234           JUNCTION     0.42     1.32     8.47     0  02:20        1.32
  WS02006235           JUNCTION     0.45     1.48     8.65     0  02:20        1.36
  WS02006238           JUNCTION     0.48     1.53     8.67     0  02:20        1.37
  WS02006239           JUNCTION     0.45     1.50     8.71     0  02:15        1.31
  WS02006240           JUNCTION     0.43     1.47     8.76     0  02:42        1.27
  WS02006242           JUNCTION     0.50     1.55     8.82     0  02:42        1.32
  WS02006243           JUNCTION     0.41     1.44     8.86     0  02:42        1.21
  WS02006245           JUNCTION     0.42     1.36     8.84     0  02:42        1.17
  WS02006247           JUNCTION     0.44     1.29     8.79     0  02:42        1.17
  WS02006248           JUNCTION     0.41     1.10     8.69     0  02:15        1.10
  WS02006249           JUNCTION     0.44     1.09     8.69     0  02:12        1.09
  WS02006251           JUNCTION     0.44     1.68     9.35     0  02:43        1.15
  WS02006252           JUNCTION     0.34     1.50     9.74     0  00:00        0.70
  WS02006256           JUNCTION     0.85     2.35     9.28     0  00:00        2.35
  WSF200               JUNCTION     0.15     0.29     5.52     0  02:30        0.29
  YS02001580           JUNCTION     0.05     1.05     9.59     0  02:07        0.77
  YS02001583           JUNCTION     0.09     1.14     9.64     0  02:07        0.82
  YS02001586           JUNCTION     0.13     1.13     9.30     0  02:07        1.13
  YS02001590           JUNCTION     0.21     1.40     9.26     0  02:05        1.38
  YS02001593           JUNCTION     0.16     1.32     9.18     0  02:07        1.29
  YS02001596           JUNCTION     0.21     1.68     9.10     0  02:07        1.65
  YS02001600           JUNCTION     0.26     1.87     9.00     0  02:07        1.86
  YS02001601           JUNCTION     0.43     2.06     8.90     0  02:06        2.06
  YS02001602           JUNCTION     0.35     1.87     8.77     0  02:06        1.87
  YS02001605           JUNCTION     0.32     1.78     8.68     0  02:06        1.77
  YS02001607           JUNCTION     0.33     1.68     8.53     0  02:06        1.66
  YS02001610           JUNCTION     0.38     1.68     8.48     0  02:06        1.68
  YS02001613           JUNCTION     0.34     1.70     8.54     0  02:06        1.65
  YS02001616           JUNCTION     0.27     1.61     8.52     0  02:06        1.61
  YS02001619           JUNCTION     0.25     1.61     8.54     0  02:06        1.61
  YS02001622           JUNCTION     0.24     1.62     8.52     0  02:06        1.57
  YS02001625           JUNCTION     0.50     1.78     8.38     0  02:07        1.78
  YS02001629           JUNCTION     0.34     1.85     8.40     0  02:07        1.85
  YS02001633           JUNCTION     0.42     2.04     8.49     0  02:13        2.04
  YS02001641           JUNCTION     0.41     1.95     8.39     0  02:13        1.95
  YS02001644           JUNCTION     0.41     1.92     8.35     0  02:11        1.92
  YS02001647           JUNCTION     0.21     1.80     8.41     0  02:11        1.72
  YS02001649           JUNCTION     0.24     2.02     8.41     0  02:12        1.91
  YS02001652           JUNCTION     0.15     1.98     8.58     0  02:11        1.73
  YS02001655           JUNCTION     0.11     2.19     9.04     0  02:11        1.51
  YS02001658           JUNCTION     0.08     2.30     9.44     0  02:11        1.25
  YS02001661           JUNCTION     0.12     1.45     8.86     0  02:12        1.04
  YS02001664           JUNCTION     0.04     0.67     8.59     0  02:12        0.61
  YS02001745           JUNCTION     0.04     0.91     8.42     0  02:11        0.88
  YS02001748           JUNCTION     0.07     1.83     8.91     0  02:11        1.27
  YS02001751           JUNCTION     0.10     1.77     8.64     0  02:11        1.42
  YS02001754           JUNCTION     0.13     1.77     8.38     0  02:11        1.65
  YS02001757           JUNCTION     0.27     2.02     8.29     0  02:11        1.95
  YS02001759           JUNCTION     0.21     1.99     8.36     0  02:11        1.94
  YS02001762           JUNCTION     0.20     1.98     8.38     0  02:11        1.91
  YS02001765           JUNCTION     0.19     1.95     8.40     0  02:11        1.89
  YS02001767           JUNCTION     0.19     1.93     8.42     0  02:11        1.88
  YS02001770           JUNCTION     0.19     1.95     8.44     0  02:11        1.93
  YS02001774           JUNCTION     0.26     2.00     8.42     0  02:11        1.99
  YS02001779           JUNCTION     0.12     1.68     8.37     0  02:10        1.68
  YS02001783           JUNCTION     0.17     1.30     7.44     0  02:10        1.24
  YS02001784           JUNCTION     0.19     1.17     7.24     0  02:10        1.13
  YS02001786           JUNCTION     0.17     0.91     6.94     0  02:10        0.88
  YS02001788           JUNCTION     0.12     0.62     6.60     0  02:10        0.62
  YS02001790           JUNCTION     0.14     0.72     6.37     0  02:14        0.72
  YS02001791           JUNCTION     0.09     0.44     5.91     0  02:13        0.43
  YS02001793           JUNCTION     0.05     0.30     5.14     0  02:16        0.30
  YS02001882           JUNCTION     0.23     1.69     8.41     0  02:10        1.69
  YS02001884           JUNCTION     0.32     1.78     8.40     0  02:10        1.78
  YS02001887           JUNCTION     0.40     1.86     8.39     0  02:13        1.86
  YS02001890           JUNCTION     0.42     1.81     8.32     0  02:10        1.81
  YS02001895           JUNCTION     0.20     1.57     8.32     0  02:10        1.57
  YS02001898           JUNCTION     0.21     1.57     8.30     0  02:20        1.57
  YS02001901           JUNCTION     0.32     1.68     8.29     0  02:10        1.67
  YS02001904           JUNCTION     0.30     1.64     8.27     0  02:20        1.63
  YS02001907           JUNCTION     0.62     1.96     8.25     0  02:10        1.96
  YS02001910           JUNCTION     0.42     1.98     8.49     0  02:10        1.89
  YS02001915           JUNCTION     0.23     1.93     8.65     0  02:10        1.79
  YS02001918           JUNCTION     0.11     1.81     8.88     0  02:10        1.57
  YS02001920           JUNCTION     0.19     2.14     9.15     0  02:10        1.67
  YS02001923           JUNCTION     0.08     2.03     9.29     0  02:10        1.46
  YS02001926           JUNCTION     0.12     1.90     9.35     0  02:10        1.30
  YS02001929           JUNCTION     0.06     1.78     9.47     0  02:10        1.07
  YS02006553           JUNCTION     0.62     1.99     8.28     0  02:13        1.99
  YS02006556           JUNCTION     0.60     1.98     8.29     0  02:13        1.98
  YS02006558           JUNCTION     0.64     2.05     8.31     0  02:13        2.05
  YS02006561           JUNCTION     0.11     0.98     7.64     0  02:10        0.90
  YS02163301           JUNCTION     0.36     1.92     8.43     0  02:10        1.91
  YS02163601           JUNCTION     0.46     2.03     8.43     0  02:10        2.03
  YS02164001           JUNCTION     0.39     1.96     8.42     0  02:10        1.94
  CC-1                 OUTFALL      0.00     0.00     0.00     0  00:00        0.00
  CC-2                 OUTFALL      0.00     0.00     0.00     0  00:00        0.00
  JK-1                 OUTFALL      0.00     0.00     0.00     0  00:00        0.00
  JK-2                 OUTFALL      0.00     0.00     0.00     0  00:00        0.00
  WSC                  OUTFALL      0.17     0.30     0.97     0  03:05        0.30
  CC-storage           STORAGE      0.89     1.61     7.11     0  02:34        1.61
  JK-storage           STORAGE      3.19     4.24     5.04     0  02:25        4.20
  
  
  *******************
  Node Inflow Summary
  *******************
  
  -------------------------------------------------------------------------------------------------
                                  Maximum  Maximum                  Lateral       Total        Flow
                                  Lateral    Total  Time of Max      Inflow      Inflow     Balance
                                   Inflow   Inflow   Occurrence      Volume      Volume       Error
  Node                 Type           LPS      LPS  days hr:min    10^6 ltr    10^6 ltr     Percent
  -------------------------------------------------------------------------------------------------
  WS02003060           JUNCTION     16.53   549.46     0  03:03       0.476        5.46       0.050
  WS02003066           JUNCTION      0.00   532.91     0  03:03           0        4.99       0.033
  WS02003067           JUNCTION      0.00   532.86     0  03:03           0        4.99       0.088
  WS02003069           JUNCTION      0.32   549.95     0  03:03     0.00922        5.47       0.088
  WS02003072           JUNCTION      0.00   549.58     0  03:04           0        5.47       0.154
  WS02003073           JUNCTION      1.82   551.10     0  03:04      0.0524        5.51       0.133
  WS02004401           JUNCTION      0.00   540.19     0  02:38           0         5.1       0.205
  WS02004402           JUNCTION      0.00   536.58     0  02:39           0        5.09       0.207
  WS02004403           JUNCTION      0.00   536.10     0  03:03           0        5.08       0.202
  WS02004404           JUNCTION      0.16   535.71     0  03:01     0.00467        5.07       0.188
  WS02004405           JUNCTION      0.04   535.72     0  03:01      0.0011        5.06       0.230
  WS02004406           JUNCTION      0.00   535.71     0  03:01           0        5.05       0.416
  WS02004407           JUNCTION      0.00   535.45     0  03:01           0        5.03       0.023
  WS02004409           JUNCTION      0.00   535.28     0  03:01           0        5.03       0.059
  WS02004410           JUNCTION      0.00   534.46     0  03:01           0        5.03       0.099
  WS02004411           JUNCTION      0.00   533.95     0  03:02           0        5.02       0.122
  WS02004412           JUNCTION      0.00   533.43     0  03:02           0        5.02       0.160
  WS02004413           JUNCTION      0.00   533.06     0  03:02           0        5.01       0.290
  WS02006109           JUNCTION      1.23   559.84     0  02:47      0.0354        5.15       0.179
  WS02006110           JUNCTION      0.00   560.88     0  02:47           0        5.14       0.183
  WS02006111           JUNCTION      0.00   564.89     0  03:48           0        5.13       0.014
  WS02006112           JUNCTION      0.00   545.00     0  03:48           0        5.13       0.362
  WS02006113           JUNCTION      0.00   566.86     0  02:37           0        5.13       0.049
  WS02006115           JUNCTION      0.00   565.48     0  02:38           0        5.11       0.137
  WS02006116           JUNCTION      0.00   541.50     0  02:39           0         5.1       0.087
  WS02006228           JUNCTION      0.00   556.95     0  02:47           0        5.12       0.114
  WS02006229           JUNCTION      0.00   556.92     0  02:47           0        5.13       0.183
  WS02006230           JUNCTION     10.28   595.63     0  03:01       0.296        5.14       0.106
  WS02006231           JUNCTION      0.00   577.04     0  02:47           0        4.84       0.049
  WS02006232           JUNCTION      0.00   575.99     0  02:47           0        4.87       0.524
  WS02006234           JUNCTION      0.00   570.62     0  02:47           0        4.86      -0.155
  WS02006235           JUNCTION      0.00   562.36     0  03:01           0        4.95       0.395
  WS02006238           JUNCTION      0.00   424.78     0  02:40           0        4.07      -0.180
  WS02006239           JUNCTION      0.00   422.77     0  02:40           0        4.04      -0.097
  WS02006240           JUNCTION      0.00   422.34     0  03:25           0        4.01       0.154
  WS02006242           JUNCTION      0.00   422.97     0  03:25           0           4       0.376
  WS02006243           JUNCTION      0.00   423.96     0  03:25           0        3.99       0.316
  WS02006245           JUNCTION      0.00   424.09     0  03:25           0        4.01       0.654
  WS02006247           JUNCTION      0.00   424.73     0  03:25           0        4.01       0.174
  WS02006248           JUNCTION      0.00   425.57     0  03:25           0        4.02       0.255
  WS02006249           JUNCTION      0.00   459.02     0  00:00           0        4.26       0.636
  WS02006251           JUNCTION      0.08   406.89     0  02:12     0.00222        4.26       0.096
  WS02006252           JUNCTION      0.00   400.00     0  00:00           0        4.26      -0.057
  WS02006256           JUNCTION      0.00   300.00     0  00:00           0        1.34      -0.876
  WSF200               JUNCTION      0.00   532.93     0  03:03           0        4.99       0.012
  YS02001580           JUNCTION      0.00   137.79     0  02:07           0     0.00445       2.145
  YS02001583           JUNCTION      0.00   181.28     0  02:07           0      0.0154      -5.302
  YS02001586           JUNCTION    572.98   572.98     0  02:15        1.24        1.26       0.101
  YS02001590           JUNCTION      0.00   318.27     0  02:14           0        1.08      -0.032
  YS02001593           JUNCTION      0.00   317.98     0  02:25           0        1.08       0.004
  YS02001596           JUNCTION      0.00   318.04     0  02:23           0        1.08      -0.013
  YS02001600           JUNCTION      0.00   318.17     0  02:14           0        1.08       0.019
  YS02001601           JUNCTION   1062.94  1380.97     0  02:14        1.76        2.84       0.030
  YS02001602           JUNCTION      0.00   523.55     0  02:06           0        1.93       0.024
  YS02001605           JUNCTION      0.00   523.38     0  02:06           0        1.84       0.028
  YS02001607           JUNCTION      0.00   523.22     0  02:06           0        1.84       0.101
  YS02001610           JUNCTION      0.00   533.24     0  02:06           0         1.9       0.121
  YS02001613           JUNCTION      0.00   537.24     0  02:06           0        1.59       0.101
  YS02001616           JUNCTION      0.00   536.36     0  02:06           0        1.59       0.022
  YS02001619           JUNCTION   1022.54  1022.54     0  02:15        1.99        3.52      -0.007
  YS02001622           JUNCTION      0.00   924.70     0  02:08           0        3.46       0.001
  YS02001625           JUNCTION      0.00  1122.03     0  02:15           0        3.54       0.254
  YS02001629           JUNCTION      0.00   926.43     0  02:07           0        2.92       0.023
  YS02001633           JUNCTION    798.56  1360.16     0  02:08        1.28        4.09       0.086
  YS02001641           JUNCTION      0.00  1357.16     0  02:08           0           4       0.071
  YS02001644           JUNCTION    716.69  1766.56     0  02:09         1.1         5.1       0.065
  YS02001647           JUNCTION      0.00  1767.66     0  02:09           0        4.93       0.006
  YS02001649           JUNCTION      0.00  2003.58     0  02:08           0        5.93      -0.003
  YS02001652           JUNCTION      0.00   821.43     0  02:13           0           1      -0.102
  YS02001655           JUNCTION      0.15   821.66     0  02:13     0.00443           1      -0.010
  YS02001658           JUNCTION      0.00   821.86     0  02:13           0       0.995      -0.077
  YS02001661           JUNCTION      0.00   786.32     0  02:12           0       0.995       0.015
  YS02001664           JUNCTION    700.35   700.35     0  02:14       0.994       0.994      -0.016
  YS02001745           JUNCTION    456.23   496.21     0  02:11       0.611       0.612       0.234
  YS02001748           JUNCTION      0.04   578.98     0  02:11      0.0013       0.613      -0.384
  YS02001751           JUNCTION      0.01   524.45     0  02:12    0.000317       0.622       0.123
  YS02001754           JUNCTION      0.26   524.38     0  02:12     0.00749       0.637      -0.231
  YS02001757           JUNCTION      0.00  3258.74     0  02:12           0        8.65       0.023
  YS02001759           JUNCTION    632.66  1286.38     0  02:13       0.841        2.09      -0.010
  YS02001762           JUNCTION      0.00   729.83     0  02:11           0        1.25       0.008
  YS02001765           JUNCTION      0.00   727.85     0  02:11           0        1.25       0.009
  YS02001767           JUNCTION      0.54   729.82     0  02:11      0.0154        1.25       0.010
  YS02001770           JUNCTION    885.17   885.17     0  02:14        1.29        1.33      -0.012
  YS02001774           JUNCTION      0.00   406.46     0  02:10           0       0.119       0.901
  YS02001779           JUNCTION      0.01   416.41     0  02:10    0.000144      0.0752      -1.468
  YS02001783           JUNCTION      0.00  1165.72     0  02:13           0        3.32       0.008
  YS02001784           JUNCTION      1.06  1165.13     0  02:13      0.0305        3.35       0.017
  YS02001786           JUNCTION      0.06  1164.79     0  02:13     0.00162        3.35       0.021
  YS02001788           JUNCTION      0.07  1166.14     0  02:13     0.00204        3.35       0.008
  YS02001790           JUNCTION      0.15  1175.49     0  02:12     0.00446        3.36       0.025
  YS02001791           JUNCTION      0.00  1288.46     0  02:15           0        3.36      -0.024
  YS02001793           JUNCTION      0.00  1246.69     0  02:13           0        3.36       0.004
  YS02001882           JUNCTION      0.00    53.66     0  02:08           0      0.0124       4.795
  YS02001884           JUNCTION      0.00    73.84     0  02:08           0      0.0482       5.408
  YS02001887           JUNCTION    694.92   699.99     0  02:13       0.888       0.922       0.495
  YS02001890           JUNCTION      0.00   700.58     0  02:13           0       0.881       0.580
  YS02001895           JUNCTION      0.00   517.68     0  02:16           0       0.836       0.184
  YS02001898           JUNCTION      0.00   517.06     0  02:16           0       0.834       0.026
  YS02001901           JUNCTION      0.00   517.27     0  02:16           0       0.837       0.390
  YS02001904           JUNCTION      0.00   517.07     0  02:15           0       0.841       0.345
  YS02001907           JUNCTION      0.00  1704.35     0  02:14           0        2.79       0.642
  YS02001910           JUNCTION      0.00  1188.18     0  02:14           0        1.95       0.363
  YS02001915           JUNCTION    775.71  1188.17     0  02:14        1.23           2       0.087
  YS02001918           JUNCTION      0.00   438.85     0  02:11           0       0.798       0.016
  YS02001920           JUNCTION      2.87   438.46     0  02:11      0.0827       0.781       0.120
  YS02001923           JUNCTION      0.04   412.08     0  02:10     0.00109       0.682      -0.094
  YS02001926           JUNCTION      0.05   651.64     0  02:10      0.0015       0.661      -0.029
  YS02001929           JUNCTION    370.75   435.95     0  02:10       0.646       0.648      -0.048
  YS02006553           JUNCTION      0.00   801.08     0  02:26           0        2.07       0.571
  YS02006556           JUNCTION      0.00   801.27     0  02:26           0        2.08       0.382
  YS02006558           JUNCTION    907.09  1167.05     0  02:10         1.3        3.35       0.105
  YS02006561           JUNCTION      0.00  1166.31     0  02:10           0        3.32      -0.003
  YS02163301           JUNCTION      0.00   926.62     0  02:08           0        2.91       0.052
  YS02163601           JUNCTION      0.11  1359.91     0  02:09     0.00317           4       0.128
  YS02164001           JUNCTION      0.00  1359.25     0  02:08           0           4       0.051
  CC-1                 OUTFALL       0.00   683.00     0  00:00           0        2.77       0.000
  CC-2                 OUTFALL       0.00   683.00     0  00:00           0        1.97       0.000
  JK-1                 OUTFALL       0.00  1000.00     0  00:00           0        1.93       0.000
  JK-2                 OUTFALL       0.00  1000.00     0  00:00           0      0.0484       0.000
  WSC                  OUTFALL       0.00   550.66     0  03:05           0         5.5       0.000
  CC-storage           STORAGE       0.00  3262.51     0  02:12           0        10.9      -0.149
  JK-storage           STORAGE       0.00  1211.50     0  02:16           0        3.51       0.179
  
  
  **********************
  Node Surcharge Summary
  **********************
  
  Surcharging occurs when water rises above the top of the highest conduit.
  ---------------------------------------------------------------------
                                               Max. Height   Min. Depth
                                   Hours       Above Crown    Below Rim
  Node                 Type      Surcharged         Meters       Meters
  ---------------------------------------------------------------------
  WS02006109           JUNCTION        1.83          0.398        1.422
  WS02006110           JUNCTION        0.65          0.336        1.514
  WS02006112           JUNCTION        0.79          0.138        1.542
  WS02006228           JUNCTION        1.83          0.348        1.852
  WS02006229           JUNCTION        1.83          0.425        2.025
  WS02006230           JUNCTION        0.65          0.341        1.229
  WS02006231           JUNCTION        0.86          0.839        0.691
  WS02006232           JUNCTION        1.85          0.834        0.646
  WS02006234           JUNCTION        1.33          0.596        0.644
  WS02006235           JUNCTION        1.78          0.773        0.517
  WS02006238           JUNCTION        1.83          0.809        0.621
  WS02006239           JUNCTION        1.80          0.759        0.531
  WS02006240           JUNCTION        1.83          0.757        0.633
  WS02006242           JUNCTION        1.84          0.820        0.000
  WS02006243           JUNCTION        1.82          0.728        0.042
  WS02006245           JUNCTION        1.82          0.645        0.205
  WS02006247           JUNCTION        1.82          0.575        0.185
  WS02006248           JUNCTION        1.81          0.380        0.000
  WS02006249           JUNCTION        1.81          0.390        0.000
  WS02006251           JUNCTION        0.96          0.649        0.531
  WS02006252           JUNCTION        2.12          1.100        0.000
  WS02006256           JUNCTION        6.36          2.050        0.000
  YS02001580           JUNCTION        0.44          0.450        0.000
  YS02001583           JUNCTION        0.45          0.500        0.000
  YS02001586           JUNCTION        0.56          0.510        0.000
  YS02001590           JUNCTION        0.63          0.748        0.002
  YS02001593           JUNCTION        0.63          0.700        0.140
  YS02001596           JUNCTION        0.73          0.950        0.120
  YS02001600           JUNCTION        0.85          1.190        0.000
  YS02001601           JUNCTION        1.19          1.440        0.000
  YS02001602           JUNCTION        1.08          1.270        0.000
  YS02001605           JUNCTION        1.03          1.180        0.000
  YS02001607           JUNCTION        0.61          0.680        0.000
  YS02001610           JUNCTION        0.63          0.680        0.000
  YS02001613           JUNCTION        0.60          0.700        0.000
  YS02001616           JUNCTION        0.57          0.610        0.000
  YS02001619           JUNCTION        0.55          0.610        0.000
  YS02001622           JUNCTION        0.55          0.620        0.000
  YS02001625           JUNCTION        0.71          0.780        0.000
  YS02001629           JUNCTION        0.52          0.470        0.000
  YS02001633           JUNCTION        0.73          1.015        0.045
  YS02001641           JUNCTION        0.67          0.955        0.145
  YS02001644           JUNCTION        0.65          0.920        0.000
  YS02001647           JUNCTION        0.47          0.800        0.100
  YS02001649           JUNCTION        0.57          1.019        0.031
  YS02001652           JUNCTION        0.40          0.951        0.179
  YS02001655           JUNCTION        0.29          1.188        0.012
  YS02001658           JUNCTION        0.14          1.300        0.000
  YS02001661           JUNCTION        0.01          0.382        1.008
  YS02001748           JUNCTION        0.10          0.749        0.441
  YS02001751           JUNCTION        0.20          0.766        0.434
  YS02001754           JUNCTION        0.33          0.721        0.429
  YS02001757           JUNCTION        0.63          1.024        0.186
  YS02001759           JUNCTION        0.54          0.993        0.217
  YS02001762           JUNCTION        0.51          0.981        0.169
  YS02001765           JUNCTION        0.47          0.953        0.147
  YS02001767           JUNCTION        0.44          0.934        0.096
  YS02001770           JUNCTION        0.41          0.920        0.000
  YS02001774           JUNCTION        0.49          1.000        0.050
  YS02001779           JUNCTION        0.33          0.680        0.000
  YS02001783           JUNCTION        0.42          0.497        1.103
  YS02001784           JUNCTION        0.40          0.368        1.122
  YS02001786           JUNCTION        0.30          0.110        1.320
  YS02001882           JUNCTION        0.37          0.695        0.135
  YS02001884           JUNCTION        0.38          0.722        0.148
  YS02001887           JUNCTION        0.41          0.806        0.144
  YS02001890           JUNCTION        0.42          0.760        0.000
  YS02001895           JUNCTION        0.36          0.571        0.179
  YS02001898           JUNCTION        0.36          0.539        0.201
  YS02001901           JUNCTION        0.40          0.678        0.192
  YS02001904           JUNCTION        0.39          0.640        0.210
  YS02001907           JUNCTION        0.61          0.950        0.000
  YS02001910           JUNCTION        0.44          0.982        0.118
  YS02001915           JUNCTION        0.37          0.929        0.071
  YS02001918           JUNCTION        0.30          0.810        0.000
  YS02001920           JUNCTION        0.31          1.140        0.000
  YS02001923           JUNCTION        0.02          0.820        0.000
  YS02001926           JUNCTION        0.04          0.900        0.000
  YS02001929           JUNCTION        0.01          0.780        0.000
  YS02006553           JUNCTION        0.62          0.993        0.197
  YS02006556           JUNCTION        0.52          0.938        0.412
  YS02006558           JUNCTION        0.52          0.946        0.454
  YS02006561           JUNCTION        0.26          0.181        0.969
  YS02163301           JUNCTION        0.71          0.918        0.112
  YS02163601           JUNCTION        0.76          1.032        0.048
  YS02164001           JUNCTION        0.68          0.957        0.143
  
  
  *********************
  Node Flooding Summary
  *********************
  
  Flooding refers to all water that overflows a node, whether it ponds or not.
  --------------------------------------------------------------------------
                                                             Total   Maximum
                                 Maximum   Time of Max       Flood    Ponded
                        Hours       Rate    Occurrence      Volume     Depth
  Node                 Flooded       LPS   days hr:min    10^6 ltr    Meters
  --------------------------------------------------------------------------
  WS02006242              0.01      1.85      0  02:42       0.000     0.000
  WS02006248              0.01     20.14      0  02:15       0.000     0.000
  WS02006249              0.91     98.16      0  02:12       0.212     0.000
  WS02006252              0.01    245.63      0  00:00       0.000     0.000
  WS02006256              1.24    293.19      0  00:00       0.421     0.000
  YS02001580              0.01    127.52      0  02:07       0.000     0.000
  YS02001583              0.01    121.27      0  02:07       0.000     0.000
  YS02001586              0.34    255.48      0  02:15       0.164     0.000
  YS02001600              0.01      0.69      0  02:07       0.000     0.000
  YS02001601              0.50    982.88      0  02:14       0.910     0.000
  YS02001602              0.42     62.07      0  02:24       0.083     0.000
  YS02001605              0.01      2.49      0  02:06       0.000     0.000
  YS02001607              0.01     33.48      0  02:06       0.000     0.000
  YS02001610              0.36    497.02      0  02:16       0.362     0.000
  YS02001613              0.01      9.49      0  02:06       0.000     0.000
  YS02001616              0.01     32.24      0  02:07       0.000     0.000
  YS02001619              0.01     20.26      0  02:07       0.000     0.000
  YS02001622              0.01     93.91      0  02:06       0.000     0.000
  YS02001625              0.33   1121.65      0  02:15       0.700     0.000
  YS02001629              0.07    170.91      0  02:13       0.027     0.000
  YS02001644              0.12    640.65      0  02:13       0.162     0.000
  YS02001658              0.01    353.66      0  02:11       0.000     0.000
  YS02001770              0.01      7.47      0  02:11       0.000     0.000
  YS02001779              0.10    342.14      0  02:10       0.058     0.000
  YS02001890              0.11    186.95      0  02:13       0.040     0.000
  YS02001907              0.25   1440.76      0  02:14       0.707     0.000
  YS02001918              0.01    183.68      0  02:10       0.002     0.000
  YS02001920              0.01     31.72      0  02:10       0.000     0.000
  YS02001923              0.01    121.16      0  02:10       0.000     0.000
  YS02001926              0.01    379.16      0  02:10       0.001     0.000
  YS02001929              0.01    185.15      0  02:10       0.001     0.000
  
  
  **********************
  Storage Volume Summary
  **********************
  
  ------------------------------------------------------------------------------------------------
                         Average    Avg   Evap  Exfil     Maximum    Max    Time of Max    Maximum
                          Volume   Pcnt   Pcnt   Pcnt      Volume   Pcnt     Occurrence    Outflow
  Storage Unit           1000 m³   Full   Loss   Loss     1000 m³   Full    days hr:min        LPS
  ------------------------------------------------------------------------------------------------
  CC-storage               2.480   38.7    0.0    0.0       4.482   69.9       0  02:34    1783.53
  JK-storage               0.160   55.0    0.0    0.0       0.213   73.0       0  02:25    2300.00
  
  
  ***********************
  Outfall Loading Summary
  ***********************
  
  -----------------------------------------------------------
                         Flow       Avg       Max       Total
                         Freq      Flow      Flow      Volume
  Outfall Node           Pcnt       LPS       LPS    10^6 ltr
  -----------------------------------------------------------
  CC-1                  13.11    683.00    683.00       2.770
  CC-2                   9.67    683.00    683.00       1.969
  JK-1                   7.62   1000.00   1000.00       1.931
  JK-2                   0.13   1000.00   1000.00       0.048
  WSC                   99.96    216.75    550.66       5.502
  -----------------------------------------------------------
  System                26.10   3582.75   3366.23      12.221
  
  
  ********************
  Link Flow Summary
  ********************
  
  -----------------------------------------------------------------------------
                                 Maximum  Time of Max   Maximum    Max/    Max/
                                  |Flow|   Occurrence   |Veloc|    Full    Full
  Link                 Type          LPS  days hr:min     m/sec    Flow   Depth
  -----------------------------------------------------------------------------
  1                    CONDUIT    550.66     0  03:05      2.82    0.19    0.30
  WS02003060WS02003069 CONDUIT    549.63     0  03:03      1.64    0.22    0.34
  WS02003066WSF200     CONDUIT    532.93     0  03:03      2.85    0.09    0.22
  WS02003067WS02003066 CONDUIT    532.91     0  03:03      1.20    0.17    0.41
  WS02003069WS02003072 CONDUIT    549.58     0  03:04      1.37    0.26    0.39
  WS02003072WS02003073 CONDUIT    549.28     0  03:04      1.43    1.19    0.37
  WS02004401WS02004402 CONDUIT    536.58     0  02:39      1.07    0.64    0.86
  WS02004402WS02004403 CONDUIT    536.10     0  03:03      1.10    0.77    0.88
  WS02004403WS02004404 CONDUIT    535.55     0  03:01      1.05    0.39    0.93
  WS02004404WS02004405 CONDUIT    535.68     0  03:01      1.22    5.25    0.96
  WS02004405WS02004406 CONDUIT    535.71     0  03:01      1.19    1.06    0.95
  WS02004406WS02004407 CONDUIT    535.45     0  03:01      1.04    0.24    0.63
  WS02004407WS02004409 CONDUIT    535.28     0  03:01      1.52    0.19    0.48
  WS02004409WS02004410 CONDUIT    534.46     0  03:01      1.06    0.69    0.67
  WS02004410WS02004411 CONDUIT    533.95     0  03:02      1.10    0.73    0.68
  WS02004411WS02004412 CONDUIT    533.43     0  03:02      1.14    0.76    0.69
  WS02004412WS02004413 CONDUIT    533.06     0  03:02      1.17    0.36    0.78
  WS02004413WS02003067 CONDUIT    532.86     0  03:03      1.11    0.23    0.59
  WS02006109WS02006110 CONDUIT    560.88     0  02:47      1.12    1.08    1.00
  WS02006110WS02006113 CONDUIT    566.86     0  02:37      1.37    0.52    0.79
  WS02006111WS02006112 CONDUIT    545.00     0  03:48      1.84    0.26    0.67
  WS02006112WS02006115 CONDUIT    565.48     0  02:38      0.83    0.33    0.87
  WS02006113WS02006111 CONDUIT    564.89     0  03:48      2.47    0.68    0.46
  WS02006115WS02006116 CONDUIT    541.50     0  02:39      1.18    0.69    0.76
  WS02006116WS02004401 CONDUIT    540.19     0  02:38      1.07    0.74    0.84
  WS02006228WS02006109 CONDUIT    558.61     0  02:47      1.11    2.44    1.00
  WS02006229WS02006228 CONDUIT    556.95     0  02:47      1.11    1.84    1.00
  WS02006230WS02006229 CONDUIT    556.92     0  02:47      1.45   12.39    1.00
  WS02006231WS02006230 CONDUIT    585.35     0  03:01      1.60    8.88    1.00
  WS02006232WS02006231 CONDUIT    577.04     0  02:47      1.50    1.21    1.00
  WS02006234WS02006232 CONDUIT    575.99     0  02:47      1.50    1.17    1.00
  WS02006235WS02006234 CONDUIT    570.62     0  02:47      1.48    6.02    1.00
  WS02006238WS02006235 CONDUIT    429.75     0  02:25      1.48    0.96    1.00
  WS02006239WS02006238 CONDUIT    424.78     0  02:40      1.22    1.36    1.00
  WS02006240WS02006239 CONDUIT    422.77     0  02:40      1.32    1.33    1.00
  WS02006242WS02006240 CONDUIT    422.34     0  03:25      1.17    1.68    1.00
  WS02006243WS02006242 CONDUIT    422.97     0  03:25      1.43    0.90    1.00
  WS02006245WS02006243 CONDUIT    423.96     0  03:25      1.45    1.25    1.00
  WS02006247WS02006245 CONDUIT    424.09     0  03:25      1.43    3.36    1.00
  WS02006248WS02006247 CONDUIT    424.73     0  03:25      1.46    0.92    1.00
  WS02006249WS02006248 CONDUIT    425.57     0  03:25      1.39    2.33    1.00
  WS02006251WS02006249 CONDUIT    459.02     0  00:00      1.99    1.32    1.00
  WS02006252WS02006251 CONDUIT    406.81     0  02:12     25.70    1.49    1.00
  WS02006256WS02006235 CONDUIT    288.91     0  00:00      4.23    3.06    1.00
  WSF200WS02003060     CONDUIT    532.93     0  03:03      2.06    0.12    0.28
  YS02001580YS02001583 CONDUIT    137.79     0  02:07      0.71    0.53    1.00
  YS02001583YS02001586 CONDUIT    165.18     0  02:07      0.72    0.25    1.00
  YS02001586YS02001590 CONDUIT    318.27     0  02:14      1.25    0.56    1.00
  YS02001590YS02001593 CONDUIT    317.98     0  02:25      1.12    2.00    1.00
  YS02001593YS02001596 CONDUIT    318.04     0  02:23      1.74    0.50    1.00
  YS02001596YS02001600 CONDUIT    318.17     0  02:14      1.23    0.62    1.00
  YS02001600YS02001601 CONDUIT    318.03     0  02:14      1.12    0.55    1.00
  YS02001601YS02001602 CONDUIT    523.55     0  02:06      1.85    1.89    1.00
  YS02001602YS02001605 CONDUIT    523.38     0  02:06      1.85   11.08    1.00
  YS02001605YS02001607 CONDUIT    523.22     0  02:06      1.85    2.87    1.00
  YS02001607YS02001610 CONDUIT    533.24     0  02:06      0.68    0.51    1.00
  YS02001610YS02001613 CONDUIT    537.24     0  02:06      0.68    0.62    1.00
  YS02001613YS02001616 CONDUIT    536.36     0  02:06      0.69    0.46    1.00
  YS02001616YS02001619 CONDUIT    497.46     0  02:06      0.67    0.86    1.00
  YS02001619YS02001622 CONDUIT    924.70     0  02:08      1.19    1.36    1.00
  YS02001622YS02001625 CONDUIT    926.61     0  02:07      1.18    0.49    1.00
  YS02001625YS02001629 CONDUIT    926.43     0  02:07      1.19    0.44    1.00
  YS02001629YS02163301 CONDUIT    926.62     0  02:08      1.18    1.14    1.00
  YS02001633YS02163601 CONDUIT   1359.80     0  02:09      1.73    1.43    1.00
  YS02001641YS02001644 CONDUIT   1358.09     0  02:08      1.73    4.39    1.00
  YS02001644YS02001647 CONDUIT   1767.66     0  02:09      2.28    1.04    1.00
  YS02001647YS02001649 CONDUIT   1773.19     0  02:09      2.33    0.94    1.00
  YS02001649YS02001757 CONDUIT   1958.06     0  02:09      2.49    1.19    1.00
  YS02001652YS02001649 CONDUIT    820.72     0  02:13      1.04    0.41    1.00
  YS02001655YS02001652 CONDUIT    821.43     0  02:13      1.32    0.40    1.00
  YS02001658YS02001655 CONDUIT    821.51     0  02:13      1.91    0.35    1.00
  YS02001661YS02001658 CONDUIT    821.86     0  02:13      2.32    0.32    1.00
  YS02001664YS02001661 CONDUIT    786.32     0  02:12      2.32    0.25    0.83
  YS02001745YS02001748 CONDUIT    578.93     0  02:11      2.18    0.22    0.95
  YS02001748YS02001751 CONDUIT    524.44     0  02:12      1.71    0.26    1.00
  YS02001751YS02001754 CONDUIT    524.12     0  02:12      1.46    0.25    1.00
  YS02001754YS02001757 CONDUIT    524.80     0  02:12      0.67    0.21    1.00
  YS02001757CaochengTiaoxuchi CONDUIT   3262.51     0  02:12      4.15    1.41    1.00
  YS02001759YS02001757 CONDUIT   1286.40     0  02:13      1.64    0.91    1.00
  YS02001762YS02001759 CONDUIT    727.57     0  02:11      0.93    0.84    1.00
  YS02001765YS02001762 CONDUIT    729.83     0  02:11      0.93    0.68    1.00
  YS02001767YS02001765 CONDUIT    727.85     0  02:11      0.93    0.92    1.00
  YS02001770YS02001767 CONDUIT    729.28     0  02:11      0.93    2.89    1.00
  YS02001774YS02001770 CONDUIT    406.46     0  02:10      0.52    0.26    1.00
  YS02001779YS02001774 CONDUIT    416.41     0  02:10      0.54    0.21    1.00
  YS02001783YS02001784 CONDUIT   1164.07     0  02:13      2.32    1.60    1.00
  YS02001784YS02001785 CONDUIT   1164.73     0  02:13      2.32    2.71    1.00
  YS02001786YS02001788 CONDUIT   1166.06     0  02:13      2.48    2.25    0.89
  YS02001788YS02001790 CONDUIT   1175.34     0  02:12      2.71    0.87    0.84
  YS02001790YS02001791 CONDUIT   1288.46     0  02:15      3.43    1.40    0.70
  YS02001791YS02001793 CONDUIT   1246.69     0  02:13      6.50    0.54    0.45
  YS02001793JiankangQianchi CONDUIT   1211.50     0  02:16      2.36    0.10    0.65
  YS02001882YS02001884 CONDUIT     53.66     0  02:08      0.09    0.06    1.00
  YS02001884YS02001887 CONDUIT     73.84     0  02:08      0.09    0.10    1.00
  YS02001887YS02001890 CONDUIT    700.58     0  02:13      0.89    1.20    1.00
  YS02001890YS02001895 CONDUIT    517.68     0  02:16      0.66    0.24    1.00
  YS02001895YS02001898 CONDUIT    517.06     0  02:16      0.66    0.90    1.00
  YS02001898YS02001901 CONDUIT    517.27     0  02:16      0.66    0.33    1.00
  YS02001901YS02001904 CONDUIT    517.07     0  02:15      0.66    0.80    1.00
  YS02001904YS02001907 CONDUIT    517.35     0  02:16      0.66    0.18    1.00
  YS02001907YS02006553 CONDUIT    801.08     0  02:26      0.89    0.94    1.00
  YS02001910YS02001907 CONDUIT   1188.36     0  02:14      1.51    0.67    1.00
  YS02001915YS02001910 CONDUIT   1188.18     0  02:14      1.51    0.59    1.00
  YS02001918YS02001915 CONDUIT    440.54     0  02:11      0.56    0.24    1.00
  YS02001920YS02001918 CONDUIT    438.85     0  02:11      0.67    0.42    1.00
  YS02001923YS02001920 CONDUIT    435.59     0  02:11      0.69    0.20    1.00
  YS02001926YS02001923 CONDUIT    426.00     0  02:10      0.96    0.61    1.00
  YS02001929YS02001926 CONDUIT    402.23     0  02:11      1.14    0.19    1.00
  YS02006553YS02006556 CONDUIT    801.27     0  02:26      1.02    0.69    1.00
  YS02006556YS02006558 CONDUIT    803.22     0  02:26      1.02    0.63    1.00
  YS02006558YS02006561 CONDUIT   1166.31     0  02:10      4.12    2.58    1.00
  YS02006561YS02001783 CONDUIT   1165.72     0  02:13      2.32    0.60    1.00
  YS02163301YS02001633 CONDUIT    926.80     0  02:08      1.18    0.87    1.00
  YS02163601YS02164001 CONDUIT   1359.25     0  02:08      1.73    1.20    1.00
  YS02164001YS02001641 CONDUIT   1357.16     0  02:08      1.73    1.85    1.00
  CC-R1                PUMP       683.00     0  00:00              1.00
  CC-R2                PUMP       683.00     0  00:00              1.00
  CC-S1                PUMP       200.00     0  00:00              1.00
  CC-S2                PUMP       200.00     0  00:00              1.00
  JK-R1                PUMP      1000.00     0  00:00              1.00
  JK-R2                PUMP      1000.00     0  00:00              1.00
  JK-S                 PUMP       300.00     0  00:00              1.00
  
  
  ***************************
  Flow Classification Summary
  ***************************
  
  -------------------------------------------------------------------------------------
                      Adjusted    ---------- Fraction of Time in Flow Class ---------- 
                       /Actual         Up    Down  Sub   Sup   Up    Down  Norm  Inlet 
  Conduit               Length    Dry  Dry   Dry   Crit  Crit  Crit  Crit  Ltd   Ctrl  
  -------------------------------------------------------------------------------------
  1                       1.00   0.00  0.00  0.00  0.00  1.00  0.00  0.00  0.35  0.00
  WS02003060WS02003069    1.00   0.00  0.00  0.00  0.97  0.03  0.00  0.00  0.69  0.00
  WS02003066WSF200        1.00   0.05  0.00  0.00  0.00  0.95  0.00  0.00  0.84  0.00
  WS02003067WS02003066    1.00   0.05  0.00  0.00  0.95  0.00  0.00  0.00  0.00  0.00
  WS02003069WS02003072    1.00   0.00  0.00  0.00  0.99  0.01  0.00  0.00  0.75  0.00
  WS02003072WS02003073    1.00   0.00  0.00  0.00  0.00  0.00  0.00  1.00  0.00  0.00
  WS02004401WS02004402    1.00   0.02  0.00  0.00  0.98  0.00  0.00  0.00  0.00  0.00
  WS02004402WS02004403    1.00   0.02  0.00  0.00  0.97  0.00  0.00  0.00  0.00  0.00
  WS02004403WS02004404    1.00   0.00  0.03  0.00  0.97  0.00  0.00  0.00  0.00  0.00
  WS02004404WS02004405    1.00   0.00  0.00  0.00  1.00  0.00  0.00  0.00  0.02  0.00
  WS02004405WS02004406    1.00   0.00  0.00  0.00  1.00  0.00  0.00  0.00  0.00  0.00
  WS02004406WS02004407    1.00   0.00  0.04  0.00  0.96  0.00  0.00  0.00  0.00  0.00
  WS02004407WS02004409    1.00   0.04  0.00  0.00  0.95  0.01  0.00  0.00  0.96  0.00
  WS02004409WS02004410    1.00   0.04  0.00  0.00  0.96  0.00  0.00  0.00  0.00  0.00
  WS02004410WS02004411    1.00   0.04  0.00  0.00  0.96  0.00  0.00  0.00  0.00  0.00
  WS02004411WS02004412    1.00   0.04  0.00  0.00  0.96  0.00  0.00  0.00  0.00  0.00
  WS02004412WS02004413    1.00   0.04  0.00  0.00  0.96  0.00  0.00  0.00  0.00  0.00
  WS02004413WS02003067    1.00   0.04  0.01  0.00  0.00  0.00  0.95  0.00  0.00  0.00
  WS02006109WS02006110    1.00   0.00  0.01  0.00  0.98  0.00  0.01  0.00  0.00  0.00
  WS02006110WS02006113    1.00   0.01  0.01  0.00  0.98  0.00  0.00  0.00  0.00  0.00
  WS02006111WS02006112    1.00   0.02  0.00  0.00  0.98  0.00  0.00  0.00  0.98  0.00
  WS02006112WS02006115    1.00   0.02  0.00  0.00  0.97  0.00  0.00  0.00  0.00  0.00
  WS02006113WS02006111    1.00   0.02  0.00  0.00  0.00  0.98  0.00  0.00  0.18  0.00
  WS02006115WS02006116    1.00   0.02  0.00  0.00  0.97  0.00  0.00  0.01  0.00  0.00
  WS02006116WS02004401    1.00   0.02  0.00  0.00  0.98  0.00  0.00  0.00  0.00  0.00
  WS02006228WS02006109    1.00   0.00  0.00  0.00  1.00  0.00  0.00  0.00  0.00  0.00
  WS02006229WS02006228    1.00   0.00  0.00  0.00  0.99  0.00  0.00  0.01  0.00  0.00
  WS02006230WS02006229    1.00   0.00  0.00  0.00  0.99  0.00  0.00  0.01  0.01  0.00
  WS02006231WS02006230    1.00   0.00  0.00  0.00  0.24  0.00  0.76  0.00  0.00  0.00
  WS02006232WS02006231    1.00   0.00  0.00  0.00  0.98  0.00  0.02  0.00  0.00  0.00
  WS02006234WS02006232    1.00   0.00  0.00  0.00  1.00  0.00  0.00  0.00  0.06  0.00
  WS02006235WS02006234    1.00   0.00  0.00  0.00  0.90  0.00  0.10  0.00  0.00  0.00
  WS02006238WS02006235    1.00   0.00  0.00  0.00  1.00  0.00  0.00  0.00  0.00  0.00
  WS02006239WS02006238    1.00   0.00  0.00  0.00  1.00  0.00  0.00  0.00  0.19  0.00
  WS02006240WS02006239    1.00   0.00  0.00  0.00  0.71  0.00  0.00  0.29  0.04  0.00
  WS02006242WS02006240    1.00   0.00  0.00  0.00  0.98  0.00  0.02  0.00  0.00  0.00
  WS02006243WS02006242    1.00   0.00  0.00  0.00  0.98  0.00  0.00  0.02  0.45  0.00
  WS02006245WS02006243    1.00   0.00  0.00  0.00  0.84  0.00  0.00  0.16  0.01  0.00
  WS02006247WS02006245    1.00   0.00  0.00  0.00  0.98  0.00  0.00  0.02  0.00  0.00
  WS02006248WS02006247    1.00   0.00  0.00  0.00  0.98  0.00  0.00  0.02  0.36  0.00
  WS02006249WS02006248    1.00   0.00  0.00  0.00  0.53  0.00  0.47  0.00  0.00  0.00
  WS02006251WS02006249    1.00   0.00  0.00  0.00  0.99  0.01  0.00  0.00  0.48  0.00
  WS02006252WS02006251    1.00   0.00  0.52  0.00  0.12  0.00  0.36  0.00  0.00  0.00
  WS02006256WS02006235    1.00   0.00  0.00  0.00  1.00  0.00  0.00  0.00  0.00  0.00
  WSF200WS02003060        1.00   0.00  0.05  0.00  0.19  0.76  0.00  0.00  0.58  0.00
  YS02001580YS02001583    1.00   0.26  0.57  0.00  0.17  0.00  0.00  0.00  0.66  0.00
  YS02001583YS02001586    1.00   0.43  0.35  0.00  0.22  0.00  0.00  0.00  0.66  0.00
  YS02001586YS02001590    1.00   0.13  0.00  0.00  0.41  0.04  0.00  0.42  0.37  0.00
  YS02001590YS02001593    1.00   0.13  0.01  0.00  0.09  0.00  0.77  0.00  0.00  0.00
  YS02001593YS02001596    1.00   0.14  0.00  0.00  0.11  0.01  0.00  0.75  0.02  0.00
  YS02001596YS02001600    1.00   0.14  0.00  0.00  0.17  0.01  0.00  0.68  0.05  0.00
  YS02001600YS02001601    1.00   0.13  0.01  0.00  0.86  0.00  0.00  0.00  0.63  0.00
  YS02001601YS02001602    1.00   0.13  0.01  0.00  0.86  0.00  0.00  0.00  0.00  0.00
  YS02001602YS02001605    1.00   0.14  0.00  0.00  0.86  0.00  0.00  0.00  0.00  0.00
  YS02001605YS02001607    1.00   0.14  0.00  0.00  0.86  0.00  0.00  0.00  0.00  0.00
  YS02001607YS02001610    1.00   0.13  0.01  0.00  0.86  0.00  0.00  0.00  0.02  0.00
  YS02001610YS02001613    1.00   0.13  0.00  0.00  0.87  0.00  0.00  0.00  0.01  0.00
  YS02001613YS02001616    1.00   0.13  0.00  0.00  0.87  0.00  0.00  0.00  0.01  0.00
  YS02001616YS02001619    1.00   0.13  0.00  0.00  0.87  0.00  0.00  0.00  0.00  0.00
  YS02001619YS02001622    1.00   0.13  0.00  0.00  0.87  0.00  0.00  0.00  0.29  0.00
  YS02001622YS02001625    1.00   0.13  0.00  0.00  0.87  0.00  0.00  0.00  0.06  0.00
  YS02001625YS02001629    1.00   0.13  0.06  0.00  0.13  0.00  0.68  0.00  0.00  0.00
  YS02001629YS02163301    1.00   0.16  0.01  0.00  0.83  0.00  0.00  0.00  0.00  0.00
  YS02001633YS02163601    1.00   0.00  0.01  0.00  0.99  0.00  0.00  0.00  0.15  0.00
  YS02001641YS02001644    1.00   0.00  0.01  0.00  0.99  0.00  0.00  0.00  0.00  0.00
  YS02001644YS02001647    1.00   0.00  0.19  0.00  0.81  0.00  0.00  0.00  0.00  0.00
  YS02001647YS02001649    1.00   0.00  0.19  0.00  0.56  0.26  0.00  0.00  0.56  0.00
  YS02001649YS02001757    1.00   0.00  0.00  0.00  0.86  0.14  0.00  0.00  0.43  0.00
  YS02001652YS02001649    1.00   0.00  0.00  0.00  0.96  0.04  0.00  0.00  0.76  0.00
  YS02001655YS02001652    1.00   0.00  0.00  0.00  0.16  0.01  0.00  0.83  0.05  0.00
  YS02001658YS02001655    1.00   0.00  0.15  0.00  0.64  0.21  0.00  0.00  0.72  0.00
  YS02001661YS02001658    1.00   0.15  0.00  0.00  0.48  0.38  0.00  0.00  0.71  0.00
  YS02001664YS02001661    1.00   0.13  0.00  0.00  0.79  0.09  0.00  0.00  0.86  0.00
  YS02001745YS02001748    1.00   0.00  0.00  0.00  0.07  0.01  0.00  0.92  0.04  0.00
  YS02001748YS02001751    1.00   0.00  0.00  0.00  0.82  0.18  0.00  0.00  0.77  0.00
  YS02001751YS02001754    1.00   0.00  0.00  0.00  0.14  0.00  0.00  0.85  0.04  0.00
  YS02001754YS02001757    1.00   0.00  0.00  0.00  1.00  0.00  0.00  0.00  0.82  0.00
  YS02001757CaochengTiaoxuchi    1.00   0.00  0.00  0.00  1.00  0.00  0.00  0.00  0.66  0.00
  YS02001759YS02001757    1.00   0.00  0.00  0.00  1.00  0.00  0.00  0.00  0.52  0.00
  YS02001762YS02001759    1.00   0.00  0.00  0.00  1.00  0.00  0.00  0.00  0.07  0.00
  YS02001765YS02001762    1.00   0.00  0.00  0.00  1.00  0.00  0.00  0.00  0.68  0.00
  YS02001767YS02001765    1.00   0.00  0.00  0.00  1.00  0.00  0.00  0.00  0.01  0.00
  YS02001770YS02001767    1.00   0.00  0.00  0.00  1.00  0.00  0.00  0.00  0.00  0.00
  YS02001774YS02001770    1.00   0.00  0.14  0.00  0.69  0.00  0.17  0.00  0.04  0.00
  YS02001779YS02001774    1.00   0.00  0.00  0.00  1.00  0.00  0.00  0.00  0.79  0.00
  YS02001783YS02001784    1.00   0.00  0.19  0.00  0.81  0.00  0.00  0.00  0.56  0.00
  YS02001784YS02001785    1.00   0.00  0.00  0.00  1.00  0.00  0.00  0.00  0.18  0.00
  YS02001786YS02001788    1.00   0.00  0.00  0.00  0.80  0.20  0.00  0.00  0.00  0.00
  YS02001788YS02001790    1.00   0.00  0.00  0.00  0.22  0.78  0.00  0.00  0.83  0.00
  YS02001790YS02001791    1.00   0.00  0.00  0.00  0.01  0.99  0.00  0.00  0.15  0.00
  YS02001791YS02001793    1.00   0.00  0.00  0.00  0.00  1.00  0.00  0.00  0.01  0.00
  YS02001793JiankangQianchi    1.00   0.00  0.00  0.00  0.99  0.00  0.00  0.00  0.96  0.00
  YS02001882YS02001884    1.00   0.16  0.01  0.00  0.83  0.00  0.00  0.00  0.00  0.00
  YS02001884YS02001887    1.00   0.06  0.05  0.00  0.89  0.00  0.00  0.00  0.00  0.00
  YS02001887YS02001890    1.00   0.00  0.00  0.00  0.97  0.00  0.03  0.00  0.00  0.00
  YS02001890YS02001895    1.00   0.00  0.17  0.00  0.82  0.00  0.00  0.00  0.00  0.00
  YS02001895YS02001898    1.00   0.18  0.00  0.00  0.80  0.00  0.02  0.00  0.00  0.00
  YS02001898YS02001901    1.00   0.18  0.00  0.00  0.82  0.00  0.00  0.00  0.01  0.00
  YS02001901YS02001904    1.00   0.18  0.00  0.00  0.82  0.00  0.00  0.00  0.00  0.00
  YS02001904YS02001907    1.00   0.00  0.17  0.00  0.82  0.00  0.00  0.00  0.00  0.00
  YS02001907YS02006553    1.00   0.00  0.02  0.00  0.98  0.00  0.00  0.00  0.00  0.00
  YS02001910YS02001907    1.00   0.00  0.00  0.00  0.97  0.00  0.00  0.03  0.12  0.00
  YS02001915YS02001910    1.00   0.00  0.00  0.00  0.96  0.04  0.00  0.00  0.17  0.00
  YS02001918YS02001915    1.00   0.00  0.01  0.00  0.98  0.02  0.00  0.00  0.77  0.00
  YS02001920YS02001918    1.00   0.00  0.01  0.00  0.99  0.00  0.00  0.00  0.00  0.00
  YS02001923YS02001920    1.00   0.00  0.00  0.00  1.00  0.00  0.00  0.00  0.94  0.00
  YS02001926YS02001923    1.00   0.00  0.07  0.00  0.05  0.00  0.88  0.00  0.00  0.00
  YS02001929YS02001926    1.00   0.00  0.13  0.00  0.87  0.00  0.00  0.00  0.83  0.00
  YS02006553YS02006556    1.00   0.01  0.00  0.00  0.99  0.00  0.00  0.00  0.03  0.00
  YS02006556YS02006558    1.00   0.00  0.00  0.00  1.00  0.00  0.00  0.00  0.00  0.00
  YS02006558YS02006561    1.00   0.19  0.00  0.00  0.04  0.76  0.00  0.00  0.19  0.00
  YS02006561YS02001783    1.00   0.19  0.00  0.00  0.07  0.73  0.00  0.00  0.70  0.00
  YS02163301YS02001633    1.00   0.00  0.16  0.00  0.84  0.00  0.00  0.00  0.00  0.00
  YS02163601YS02164001    1.00   0.00  0.08  0.00  0.92  0.00  0.00  0.00  0.00  0.00
  YS02164001YS02001641    1.00   0.01  0.07  0.00  0.92  0.00  0.00  0.00  0.06  0.00
  
  
  *************************
  Conduit Surcharge Summary
  *************************
  
  ----------------------------------------------------------------------------
                                                           Hours        Hours 
                         --------- Hours Full --------   Above Full   Capacity
  Conduit                Both Ends  Upstream  Dnstream   Normal Flow   Limited
  ----------------------------------------------------------------------------
  WS02003072WS02003073        0.01      0.01      0.01      1.35         0.01
  WS02004404WS02004405        0.01      0.01      0.01      3.71         0.01
  WS02004405WS02004406        0.01      0.01      0.01      0.66         0.01
  WS02006109WS02006110        0.65      0.65      1.85      0.82         0.01
  WS02006110WS02006113        0.01      0.01      1.84      0.01         0.01
  WS02006111WS02006112        0.01      0.01      1.97      0.01         0.01
  WS02006112WS02006115        0.01      0.01      0.79      0.01         0.01
  WS02006228WS02006109        1.83      1.85      1.83      2.19         1.83
  WS02006229WS02006228        1.83      1.83      1.83      2.00         1.81
  WS02006230WS02006229        1.88      1.96      1.88      4.76         1.88
  WS02006231WS02006230        0.65      0.65      0.94      4.21         0.01
  WS02006232WS02006231        0.85      0.85      1.85      0.95         0.01
  WS02006234WS02006232        1.76      1.76      1.85      0.92         0.92
  WS02006235WS02006234        1.32      1.33      1.77      3.93         0.02
  WS02006238WS02006235        1.79      1.79      1.85      0.01         0.01
  WS02006239WS02006238        1.83      1.84      1.83      1.94         1.62
  WS02006240WS02006239        1.80      1.83      1.80      1.95         1.52
  WS02006242WS02006240        1.83      1.83      1.87      2.10         0.01
  WS02006243WS02006242        1.82      1.82      1.84      0.01         0.07
  WS02006245WS02006243        1.82      1.82      1.82      1.27         1.12
  WS02006247WS02006245        1.82      1.82      1.82      3.69         1.80
  WS02006248WS02006247        1.81      1.81      1.82      0.01         0.07
  WS02006249WS02006248        1.81      1.81      1.81      3.63         0.01
  WS02006251WS02006249        1.80      1.80      1.81      2.06         1.69
  WS02006252WS02006251        2.11      2.11      2.12      2.12         0.01
  WS02006256WS02006235        4.00      4.06      6.32      1.24         0.01
  YS02001580YS02001583        0.44      0.44      0.49      0.01         0.01
  YS02001583YS02001586        0.45      0.45      0.56      0.01         0.01
  YS02001586YS02001590        0.57      0.57      0.63      0.01         0.01
  YS02001590YS02001593        0.63      0.63      0.65      0.66         0.01
  YS02001593YS02001596        0.64      0.64      0.73      0.01         0.01
  YS02001596YS02001600        0.77      0.77      0.86      0.01         0.01
  YS02001600YS02001601        0.91      0.91      1.19      0.01         0.01
  YS02001601YS02001602        1.08      1.08      1.22      0.85         0.01
  YS02001602YS02001605        1.03      1.03      1.08      2.06         0.01
  YS02001605YS02001607        0.99      1.03      0.99      1.15         0.99
  YS02001607YS02001610        0.61      0.61      0.63      0.01         0.01
  YS02001610YS02001613        0.60      0.60      0.63      0.01         0.01
  YS02001613YS02001616        0.57      0.57      0.60      0.01         0.01
  YS02001616YS02001619        0.55      0.55      0.57      0.01         0.01
  YS02001619YS02001622        0.55      0.55      0.55      0.64         0.53
  YS02001622YS02001625        0.55      0.55      0.71      0.01         0.01
  YS02001625YS02001629        0.52      0.52      0.71      0.01         0.01
  YS02001629YS02163301        0.70      0.70      0.71      0.12         0.15
  YS02001633YS02163601        0.73      0.73      0.76      0.29         0.28
  YS02001641YS02001644        0.65      0.67      0.65      1.26         0.63
  YS02001644YS02001647        0.47      0.47      0.65      0.03         0.01
  YS02001647YS02001649        0.47      0.47      0.57      0.01         0.01
  YS02001649YS02001757        0.57      0.57      0.63      0.06         0.03
  YS02001652YS02001649        0.42      0.42      0.57      0.01         0.01
  YS02001655YS02001652        0.28      0.28      0.41      0.01         0.01
  YS02001658YS02001655        0.14      0.14      0.28      0.01         0.01
  YS02001661YS02001658        0.01      0.01      0.14      0.01         0.01
  YS02001664YS02001661        0.01      0.01      0.02      0.01         0.01
  YS02001745YS02001748        0.01      0.01      0.10      0.01         0.01
  YS02001748YS02001751        0.13      0.13      0.20      0.01         0.01
  YS02001751YS02001754        0.20      0.20      0.33      0.01         0.01
  YS02001754YS02001757        0.36      0.36      0.63      0.01         0.01
  YS02001757CaochengTiaoxuchi        0.63      0.63      1.79      0.28         0.26
  YS02001759YS02001757        0.54      0.54      0.63      0.01         0.01
  YS02001762YS02001759        0.51      0.51      0.54      0.01         0.02
  YS02001765YS02001762        0.47      0.47      0.51      0.01         0.01
  YS02001767YS02001765        0.44      0.44      0.47      0.01         0.02
  YS02001770YS02001767        0.44      0.44      0.44      0.42         0.32
  YS02001774YS02001770        0.41      0.41      0.49      0.01         0.01
  YS02001779YS02001774        0.33      0.33      0.49      0.01         0.01
  YS02001783YS02001784        0.40      0.42      0.40      0.55         0.40
  YS02001784YS02001785        0.30      0.40      0.30      0.73         0.30
  YS02001786YS02001788        0.01      0.30      0.01      0.64         0.01
  YS02001790YS02001791        0.01      0.01      0.01      0.39         0.01
  YS02001793JiankangQianchi        0.01      0.01      7.70      0.01         0.01
  YS02001882YS02001884        0.37      0.37      0.38      0.01         0.01
  YS02001884YS02001887        0.40      0.40      0.41      0.01         0.01
  YS02001887YS02001890        0.42      0.42      0.43      0.07         0.01
  YS02001890YS02001895        0.36      0.36      0.45      0.01         0.01
  YS02001895YS02001898        0.36      0.36      0.36      0.01         0.01
  YS02001898YS02001901        0.36      0.36      0.40      0.01         0.01
  YS02001901YS02001904        0.39      0.39      0.40      0.01         0.01
  YS02001904YS02001907        0.39      0.39      0.62      0.01         0.01
  YS02001907YS02006553        0.74      0.74      0.81      0.01         0.01
  YS02001910YS02001907        0.44      0.44      0.61      0.01         0.01
  YS02001915YS02001910        0.37      0.37      0.44      0.01         0.01
  YS02001918YS02001915        0.30      0.30      0.37      0.01         0.01
  YS02001920YS02001918        0.30      0.30      0.31      0.01         0.01
  YS02001923YS02001920        0.26      0.26      0.31      0.01         0.01
  YS02001926YS02001923        0.02      0.02      0.04      0.01         0.01
  YS02001929YS02001926        0.01      0.01      0.04      0.01         0.01
  YS02006553YS02006556        0.52      0.52      0.62      0.01         0.01
  YS02006556YS02006558        0.57      0.57      0.63      0.01         0.01
  YS02006558YS02006561        0.33      0.52      0.33      0.70         0.33
  YS02006561YS02001783        0.26      0.26      0.42      0.01         0.01
  YS02163301YS02001633        0.71      0.71      0.75      0.01         0.01
  YS02163601YS02164001        0.68      0.68      0.76      0.06         0.01
  YS02164001YS02001641        0.67      0.68      0.67      0.59         0.50
  
  
  ***************
  Pumping Summary
  ***************
  
  ---------------------------------------------------------------------------------------------------------
                                                  Min       Avg       Max     Total     Power    % Time Off
                        Percent   Number of      Flow      Flow      Flow    Volume     Usage    Pump Curve
  Pump                 Utilized   Start-Ups       LPS       LPS       LPS  10^6 ltr     Kw-hr    Low   High
  ---------------------------------------------------------------------------------------------------------
  CC-R1                   14.08           2      0.00    683.00    683.00     2.770     52.01    0.0    7.4
  CC-R2                   10.01           2      0.00    683.00    683.00     1.968     37.20    0.0   10.4
  CC-S1                   41.29           4      0.00    200.00    200.00     2.379     14.11    0.0    0.0
  CC-S2                   32.67           7      0.00    200.00    200.00     1.882     11.22    0.0    0.0
  JK-R1                    6.70          11      0.00   1000.00   1000.00     1.930     23.08    0.0    0.0
  JK-R2                    0.16           1      0.00   1000.00   1000.00     0.047      0.36    0.0    0.0
  JK-S                    15.46          22      0.00    300.00    300.00     1.336     17.47    0.0    0.0
  

  Analysis begun on:  Wed Apr 23 23:56:27 2025
  Analysis ended on:  Wed Apr 23 23:56:29 2025
  Total elapsed time: 00:00:02