
  EPA STORM WATER MANAGEMENT MODEL - VERSION 5.2 (Build 5.2.4)
  PYSWMM TOOLKIT API - VERSION v1.0 (2023-11-27)
  ------------------------------------------------------------

  WARNING 04: minimum elevation drop used for Conduit WS02004404WS02004405
  WARNING 03: negative offset ignored for Link YS02001904YS02001907
  
  ****************
  Analysis Options
  ****************
  Flow Units ............... LPS
  Process Models:
    Rainfall/Runoff ........ YES
    RDII ................... NO
    Snowmelt ............... NO
    Groundwater ............ NO
    Flow Routing ........... YES
    Ponding Allowed ........ NO
    Water Quality .......... NO
  Infiltration Method ...... HORTON
  Flow Routing Method ...... DYNWAVE
  Surcharge Method ......... EXTRAN
  Starting Date ............ 08/28/2015 08:00:00
  Ending Date .............. 08/28/2015 16:00:00
  Antecedent Dry Days ...... 8.0
  Report Time Step ......... 00:01:00
  Wet Time Step ............ 00:01:00
  Dry Time Step ............ 00:01:00
  Routing Time Step ........ 30.00 sec
  Variable Time Step ....... YES
  Maximum Trials ........... 8
  Number of Threads ........ 4
  Head Tolerance ........... 0.001500 m
  
  
  **************************        Volume         Depth
  Runoff Quantity Continuity     hectare-m            mm
  **************************     ---------       -------
  Total Precipitation ......         1.357        40.899
  Evaporation Loss .........         0.000         0.000
  Infiltration Loss ........         0.095         2.854
  Surface Runoff ...........         1.229        37.059
  Final Storage ............         0.033         0.994
  Continuity Error (%) .....        -0.021
  
  
  **************************        Volume        Volume
  Flow Routing Continuity        hectare-m      10^6 ltr
  **************************     ---------     ---------
  Dry Weather Inflow .......         0.025         0.251
  Wet Weather Inflow .......         1.230        12.297
  Groundwater Inflow .......         0.000         0.000
  RDII Inflow ..............         0.000         0.000
  External Inflow ..........         0.083         0.834
  External Outflow .........         1.218        12.183
  Flooding Loss ............         0.189         1.893
  Evaporation Loss .........         0.000         0.000
  Exfiltration Loss ........         0.000         0.000
  Initial Stored Volume ....         0.243         2.431
  Final Stored Volume ......         0.181         1.811
  Continuity Error (%) .....        -0.473
  
  
  *************************
  Highest Continuity Errors
  *************************
  Node YS02001884 (5.02%)
  Node YS02001583 (-4.06%)
  Node WS02006256 (-2.68%)
  Node YS02001774 (1.70%)
  
  
  ***************************
  Time-Step Critical Elements
  ***************************
  Link WS02006252WS02006251 (54.96%)
  Link WS02004404WS02004405 (14.14%)
  Link WS02006238WS02006235 (13.94%)
  Link WS02006235WS02006234 (4.22%)
  Link YS02001791YS02001793 (3.87%)
  
  
  ********************************
  Highest Flow Instability Indexes
  ********************************
  Link WS02006113WS02006111 (42)
  Link WS02006111WS02006112 (19)
  Link WS02006256WS02006235 (14)
  Link WS02006238WS02006235 (9)
  Link WS02006252WS02006251 (9)
  
  
  *********************************
  Most Frequent Nonconverging Nodes
  *********************************
  Node CC-1 (10.41%)
  Node CC-2 (10.41%)
  Node JK-1 (10.41%)
  Node JK-2 (10.41%)
  Node WSC (10.41%)
  
  
  *************************
  Routing Time Step Summary
  *************************
  Minimum Time Step           :     0.00 sec
  Average Time Step           :     2.04 sec
  Maximum Time Step           :     7.04 sec
  % of Time in Steady State   :     0.00
  Average Iterations per Step :     2.90
  % of Steps Not Converging   :    10.41
  Time Step Frequencies       :
     30.000 - 13.228 sec      :     0.00 %
     13.228 -  5.833 sec      :    11.80 %
      5.833 -  2.572 sec      :    17.36 %
      2.572 -  1.134 sec      :    12.91 %
      1.134 -  0.500 sec      :    57.92 %
  
  
  ***************************
  Subcatchment Runoff Summary
  ***************************
  
  ------------------------------------------------------------------------------------------------------------------------------
                            Total      Total      Total      Total     Imperv       Perv      Total       Total     Peak  Runoff
                           Precip      Runon       Evap      Infil     Runoff     Runoff     Runoff      Runoff   Runoff   Coeff
  Subcatchment                 mm         mm         mm         mm         mm         mm         mm    10^6 ltr      LPS
  ------------------------------------------------------------------------------------------------------------------------------
  sub60                     40.90       0.00       0.00       1.71      34.78       3.20      37.99        0.50   363.78   0.929
  sub61                     40.90       0.00       0.00       2.48      32.81       4.47      37.28        0.68   504.18   0.912
  sub62                     40.90       0.00       0.00       1.14      36.34       2.14      38.47        1.05   702.71   0.941
  sub63                     40.90       0.00       0.00       4.63      28.06       7.23      35.30        0.80   559.10   0.863
  sub64                     40.90       0.00       0.00       2.33      33.55       3.80      37.36        0.90   565.50   0.913
  sub65                     40.90       0.00       0.00       2.02      34.32       3.30      37.62        1.04   632.20   0.920
  sub66                     40.90       0.00       0.00       5.70      27.96       6.16      34.12        1.59   809.59   0.834
  sub67                     40.90       0.00       0.00       1.09      36.38       2.18      38.56        0.72   550.28   0.943
  sub68                     40.90       0.00       0.00       2.06      33.98       3.67      37.65        1.04   722.67   0.921
  sub69                     40.90       0.00       0.00       1.83      34.65       4.31      38.96        1.44   842.47   0.952
  sub70                     40.90       0.00       0.00       6.06      26.83       7.85      34.67        1.00   453.97   0.848
  sub71                     40.90       0.00       0.00       1.17      36.30       2.10      38.40        1.00   613.98   0.939
  sub72                     40.90       0.00       0.00       1.05      36.63       1.82      38.45        0.53   295.86   0.940
  
  
  ******************
  Node Depth Summary
  ******************
  
  ---------------------------------------------------------------------------------
                                 Average  Maximum  Maximum  Time of Max    Reported
                                   Depth    Depth      HGL   Occurrence   Max Depth
  Node                 Type       Meters   Meters   Meters  days hr:min      Meters
  ---------------------------------------------------------------------------------
  WS02003060           JUNCTION     0.21     0.38     5.31     0  02:43        0.38
  WS02003066           JUNCTION     0.18     0.30     5.85     0  02:43        0.30
  WS02003067           JUNCTION     0.47     0.70     6.02     0  02:43        0.70
  WS02003069           JUNCTION     0.24     0.43     5.01     0  02:44        0.43
  WS02003072           JUNCTION     0.30     0.50     4.87     0  02:44        0.50
  WS02003073           JUNCTION     0.17     0.30     4.36     0  02:45        0.30
  WS02004401           JUNCTION     0.55     0.85     6.85     0  02:40        0.85
  WS02004402           JUNCTION     0.58     0.87     6.83     0  02:40        0.87
  WS02004403           JUNCTION     0.60     0.89     6.82     0  02:40        0.89
  WS02004404           JUNCTION     0.68     0.96     6.81     0  02:40        0.96
  WS02004405           JUNCTION     0.68     0.95     6.80     0  02:40        0.95
  WS02004406           JUNCTION     0.69     0.95     6.78     0  02:41        0.95
  WS02004407           JUNCTION     0.16     0.29     6.61     0  02:41        0.29
  WS02004409           JUNCTION     0.35     0.66     6.43     0  02:41        0.66
  WS02004410           JUNCTION     0.38     0.68     6.40     0  02:42        0.68
  WS02004411           JUNCTION     0.40     0.69     6.37     0  02:42        0.69
  WS02004412           JUNCTION     0.42     0.69     6.33     0  02:42        0.69
  WS02004413           JUNCTION     0.59     0.85     6.32     0  02:42        0.85
  WS02006109           JUNCTION     0.60     1.24     7.85     0  02:46        0.98
  WS02006110           JUNCTION     0.61     1.26     7.85     0  02:46        0.93
  WS02006111           JUNCTION     0.16     0.29     6.99     0  03:01        0.29
  WS02006112           JUNCTION     0.70     1.05     6.94     0  02:40        1.04
  WS02006113           JUNCTION     0.24     0.46     7.35     0  03:01        0.45
  WS02006115           JUNCTION     0.43     0.75     6.89     0  02:40        0.75
  WS02006116           JUNCTION     0.51     0.83     6.87     0  02:40        0.83
  WS02006228           JUNCTION     0.58     1.18     7.83     0  02:46        1.02
  WS02006229           JUNCTION     0.55     1.21     7.91     0  02:45        1.03
  WS02006230           JUNCTION     0.53     1.39     8.14     0  02:45        1.16
  WS02006231           JUNCTION     0.36     1.27     8.40     0  02:45        0.91
  WS02006232           JUNCTION     0.48     1.35     8.39     0  02:45        1.11
  WS02006234           JUNCTION     0.39     1.30     8.45     0  02:45        1.14
  WS02006235           JUNCTION     0.43     1.36     8.53     0  02:45        1.23
  WS02006238           JUNCTION     0.45     1.39     8.53     0  02:45        1.26
  WS02006239           JUNCTION     0.41     1.36     8.57     0  02:45        1.24
  WS02006240           JUNCTION     0.38     1.31     8.60     0  02:45        1.20
  WS02006242           JUNCTION     0.45     1.35     8.62     0  02:45        1.27
  WS02006243           JUNCTION     0.36     1.22     8.64     0  02:45        1.16
  WS02006245           JUNCTION     0.36     1.19     8.68     0  02:40        1.14
  WS02006247           JUNCTION     0.38     1.20     8.70     0  02:45        1.15
  WS02006248           JUNCTION     0.34     1.10     8.69     0  02:40        1.09
  WS02006249           JUNCTION     0.38     1.09     8.69     0  02:30        1.09
  WS02006251           JUNCTION     0.37     1.67     9.34     0  02:45        1.18
  WS02006252           JUNCTION     0.30     1.50     9.74     0  00:00        0.73
  WS02006256           JUNCTION     0.85     2.35     9.28     0  00:00        2.35
  WSF200               JUNCTION     0.15     0.29     5.52     0  02:43        0.29
  YS02001580           JUNCTION     0.06     1.05     9.59     0  02:19        1.03
  YS02001583           JUNCTION     0.09     1.14     9.64     0  02:19        1.02
  YS02001586           JUNCTION     0.17     1.13     9.30     0  02:19        1.13
  YS02001590           JUNCTION     0.26     1.40     9.26     0  02:19        1.40
  YS02001593           JUNCTION     0.19     1.46     9.32     0  02:43        1.40
  YS02001596           JUNCTION     0.26     1.80     9.22     0  02:43        1.70
  YS02001600           JUNCTION     0.32     1.87     9.00     0  02:19        1.87
  YS02001601           JUNCTION     0.52     2.06     8.90     0  02:19        2.06
  YS02001602           JUNCTION     0.44     1.87     8.77     0  02:19        1.87
  YS02001605           JUNCTION     0.40     1.78     8.68     0  02:19        1.78
  YS02001607           JUNCTION     0.40     1.68     8.53     0  02:19        1.68
  YS02001610           JUNCTION     0.45     1.68     8.48     0  02:19        1.68
  YS02001613           JUNCTION     0.40     1.70     8.54     0  02:21        1.70
  YS02001616           JUNCTION     0.33     1.61     8.52     0  02:19        1.61
  YS02001619           JUNCTION     0.31     1.61     8.54     0  02:19        1.61
  YS02001622           JUNCTION     0.29     1.62     8.52     0  02:19        1.62
  YS02001625           JUNCTION     0.56     1.78     8.38     0  02:19        1.78
  YS02001629           JUNCTION     0.41     1.85     8.40     0  02:19        1.85
  YS02001633           JUNCTION     0.49     2.08     8.53     0  02:23        2.08
  YS02001641           JUNCTION     0.47     2.08     8.52     0  02:23        2.08
  YS02001644           JUNCTION     0.47     1.92     8.35     0  02:23        1.92
  YS02001647           JUNCTION     0.25     1.84     8.45     0  02:24        1.66
  YS02001649           JUNCTION     0.28     2.05     8.44     0  02:24        1.80
  YS02001652           JUNCTION     0.16     2.16     8.76     0  02:23        1.62
  YS02001655           JUNCTION     0.12     2.20     9.05     0  02:23        1.39
  YS02001658           JUNCTION     0.09     2.30     9.44     0  02:24        1.13
  YS02001661           JUNCTION     0.13     0.94     8.35     0  02:25        0.89
  YS02001664           JUNCTION     0.05     0.35     8.27     0  02:26        0.35
  YS02001745           JUNCTION     0.05     0.65     8.17     0  02:25        0.61
  YS02001748           JUNCTION     0.08     2.05     9.13     0  02:25        1.04
  YS02001751           JUNCTION     0.10     1.95     8.83     0  02:25        1.22
  YS02001754           JUNCTION     0.14     2.08     8.68     0  02:24        1.47
  YS02001757           JUNCTION     0.28     2.01     8.27     0  02:25        1.80
  YS02001759           JUNCTION     0.22     1.98     8.34     0  02:25        1.77
  YS02001762           JUNCTION     0.22     2.12     8.52     0  02:23        1.77
  YS02001765           JUNCTION     0.20     2.06     8.51     0  02:23        1.76
  YS02001767           JUNCTION     0.20     2.03     8.52     0  02:23        1.76
  YS02001770           JUNCTION     0.22     1.95     8.44     0  02:23        1.82
  YS02001774           JUNCTION     0.28     2.03     8.46     0  02:23        1.90
  YS02001779           JUNCTION     0.12     1.68     8.37     0  02:23        1.64
  YS02001783           JUNCTION     0.22     1.45     7.59     0  02:22        1.21
  YS02001784           JUNCTION     0.24     1.22     7.29     0  02:22        1.11
  YS02001786           JUNCTION     0.20     0.95     6.98     0  02:22        0.87
  YS02001788           JUNCTION     0.14     0.62     6.60     0  02:26        0.62
  YS02001790           JUNCTION     0.17     0.72     6.36     0  02:29        0.72
  YS02001791           JUNCTION     0.11     0.44     5.91     0  02:31        0.43
  YS02001793           JUNCTION     0.06     0.29     5.12     0  02:29        0.28
  YS02001882           JUNCTION     0.28     1.83     8.55     0  02:21        1.64
  YS02001884           JUNCTION     0.37     1.93     8.55     0  02:21        1.74
  YS02001887           JUNCTION     0.45     1.93     8.47     0  02:21        1.83
  YS02001890           JUNCTION     0.48     1.81     8.32     0  02:21        1.81
  YS02001895           JUNCTION     0.25     1.58     8.33     0  02:22        1.55
  YS02001898           JUNCTION     0.26     1.65     8.38     0  02:21        1.56
  YS02001901           JUNCTION     0.37     1.77     8.38     0  02:23        1.77
  YS02001904           JUNCTION     0.35     1.85     8.48     0  02:23        1.85
  YS02001907           JUNCTION     0.67     1.96     8.25     0  02:22        1.96
  YS02001910           JUNCTION     0.47     2.10     8.61     0  02:23        2.10
  YS02001915           JUNCTION     0.28     2.00     8.72     0  02:21        2.00
  YS02001918           JUNCTION     0.14     1.81     8.88     0  02:23        1.81
  YS02001920           JUNCTION     0.22     2.14     9.15     0  02:23        2.14
  YS02001923           JUNCTION     0.10     2.03     9.29     0  02:23        1.31
  YS02001926           JUNCTION     0.14     1.90     9.35     0  02:23        1.14
  YS02001929           JUNCTION     0.08     1.78     9.47     0  02:23        0.91
  YS02006553           JUNCTION     0.68     2.19     8.47     0  02:23        2.19
  YS02006556           JUNCTION     0.65     2.39     8.70     0  02:23        2.39
  YS02006558           JUNCTION     0.69     2.50     8.77     0  02:23        2.50
  YS02006561           JUNCTION     0.13     1.28     7.94     0  02:22        0.88
  YS02163301           JUNCTION     0.43     1.93     8.45     0  02:24        1.91
  YS02163601           JUNCTION     0.53     2.07     8.47     0  02:24        2.00
  YS02164001           JUNCTION     0.46     1.99     8.45     0  02:24        1.93
  CC-1                 OUTFALL      0.00     0.00     0.00     0  00:00        0.00
  CC-2                 OUTFALL      0.00     0.00     0.00     0  00:00        0.00
  JK-1                 OUTFALL      0.00     0.00     0.00     0  00:00        0.00
  JK-2                 OUTFALL      0.00     0.00     0.00     0  00:00        0.00
  WSC                  OUTFALL      0.17     0.30     0.97     0  02:45        0.30
  CC-storage           STORAGE      0.77     1.44     6.94     0  02:42        1.44
  JK-storage           STORAGE      1.73     4.24     5.04     0  02:28        4.15
  
  
  *******************
  Node Inflow Summary
  *******************
  
  -------------------------------------------------------------------------------------------------
                                  Maximum  Maximum                  Lateral       Total        Flow
                                  Lateral    Total  Time of Max      Inflow      Inflow     Balance
                                   Inflow   Inflow   Occurrence      Volume      Volume       Error
  Node                 Type           LPS      LPS  days hr:min    10^6 ltr    10^6 ltr     Percent
  -------------------------------------------------------------------------------------------------
  WS02003060           JUNCTION     16.53   546.81     0  02:43       0.476        3.96       0.055
  WS02003066           JUNCTION      0.00   529.89     0  02:43           0        3.49       0.037
  WS02003067           JUNCTION      0.00   529.71     0  02:43           0        3.49       0.118
  WS02003069           JUNCTION      0.32   547.05     0  02:43     0.00922        3.97       0.095
  WS02003072           JUNCTION      0.00   546.45     0  02:44           0        3.96       0.169
  WS02003073           JUNCTION      1.82   547.77     0  02:45      0.0524        4.01       0.136
  WS02004401           JUNCTION      0.00   535.43     0  02:40           0        3.59       0.280
  WS02004402           JUNCTION      0.00   535.05     0  02:40           0        3.58       0.285
  WS02004403           JUNCTION      0.00   534.86     0  02:40           0        3.57       0.279
  WS02004404           JUNCTION      0.16   534.78     0  02:40     0.00467        3.56       0.233
  WS02004405           JUNCTION      0.04   534.77     0  02:40      0.0011        3.56       0.348
  WS02004406           JUNCTION      0.00   534.80     0  02:40           0        3.54       0.580
  WS02004407           JUNCTION      0.00   534.64     0  02:41           0        3.52       0.029
  WS02004409           JUNCTION      0.00   534.48     0  02:41           0        3.52       0.070
  WS02004410           JUNCTION      0.00   532.93     0  02:41           0        3.52       0.118
  WS02004411           JUNCTION      0.00   531.53     0  02:42           0        3.52       0.153
  WS02004412           JUNCTION      0.00   530.62     0  02:42           0        3.51       0.207
  WS02004413           JUNCTION      0.00   530.15     0  02:42           0         3.5       0.369
  WS02006109           JUNCTION      1.23   562.60     0  02:46      0.0354        3.64       0.225
  WS02006110           JUNCTION      0.00   562.25     0  02:46           0        3.63       0.187
  WS02006111           JUNCTION      0.00   562.90     0  03:01           0        3.62       0.023
  WS02006112           JUNCTION      0.00   543.47     0  03:01           0        3.62       0.490
  WS02006113           JUNCTION      0.00   570.69     0  02:46           0        3.62       0.053
  WS02006115           JUNCTION      0.00   547.93     0  03:01           0         3.6       0.177
  WS02006116           JUNCTION      0.00   537.17     0  02:50           0         3.6       0.157
  WS02006228           JUNCTION      0.00   561.00     0  02:46           0         3.6       0.077
  WS02006229           JUNCTION      0.00   560.86     0  02:46           0        3.61       0.142
  WS02006230           JUNCTION     10.28   587.57     0  02:45       0.296        3.62       0.156
  WS02006231           JUNCTION      0.00   570.99     0  02:58           0        3.32      -0.033
  WS02006232           JUNCTION      0.00   569.78     0  02:58           0        3.33       0.339
  WS02006234           JUNCTION      0.00   565.59     0  02:58           0        3.32      -0.398
  WS02006235           JUNCTION      0.00   558.74     0  02:58           0         3.4       0.476
  WS02006238           JUNCTION      0.00   424.30     0  02:40           0        2.83      -0.264
  WS02006239           JUNCTION      0.00   424.24     0  02:40           0        2.77      -0.186
  WS02006240           JUNCTION      0.00   421.35     0  02:40           0        2.74      -0.061
  WS02006242           JUNCTION      0.00   420.95     0  02:40           0        2.73       0.033
  WS02006243           JUNCTION      0.00   420.65     0  02:40           0        2.73      -0.015
  WS02006245           JUNCTION      0.00   420.07     0  02:40           0        2.74       0.440
  WS02006247           JUNCTION      0.00   419.84     0  02:40           0        2.74       0.027
  WS02006248           JUNCTION      0.00   420.28     0  02:40           0        2.74       0.020
  WS02006249           JUNCTION      0.00   459.02     0  00:00           0        2.85       0.448
  WS02006251           JUNCTION      0.08   406.83     0  02:30     0.00222        2.85       0.007
  WS02006252           JUNCTION      0.00   400.00     0  00:00           0        2.84      -0.343
  WS02006256           JUNCTION      0.00   300.00     0  00:00           0       0.813      -2.613
  WSF200               JUNCTION      0.00   529.98     0  02:43           0        3.49       0.012
  YS02001580           JUNCTION      0.00   137.91     0  02:19           0     0.00424      -0.247
  YS02001583           JUNCTION      0.00   161.32     0  02:19           0      0.0153      -3.898
  YS02001586           JUNCTION    453.97   453.97     0  02:26           1        1.01       0.113
  YS02001590           JUNCTION      0.00   318.12     0  02:23           0       0.938      -0.042
  YS02001593           JUNCTION      0.00   317.96     0  02:26           0       0.939      -0.002
  YS02001596           JUNCTION      0.00   317.87     0  02:28           0       0.939      -0.001
  YS02001600           JUNCTION      0.00   318.03     0  02:27           0       0.939       0.014
  YS02001601           JUNCTION    842.47  1160.30     0  02:26        1.44        2.38       0.024
  YS02001602           JUNCTION      0.00   515.97     0  02:19           0        1.78       0.026
  YS02001605           JUNCTION      0.00   515.95     0  02:19           0        1.73       0.044
  YS02001607           JUNCTION      0.00   515.75     0  02:19           0        1.73       0.114
  YS02001610           JUNCTION      0.00   519.13     0  02:18           0        1.72       0.120
  YS02001613           JUNCTION      0.00   522.10     0  02:18           0        1.56       0.103
  YS02001616           JUNCTION      0.00   518.27     0  02:19           0        1.56       0.027
  YS02001619           JUNCTION    809.59   929.92     0  02:22        1.59        3.15       0.002
  YS02001622           JUNCTION      0.00   929.92     0  02:22           0        3.15       0.001
  YS02001625           JUNCTION      0.00   929.78     0  02:22           0        3.15       0.278
  YS02001629           JUNCTION      0.00   929.89     0  02:22           0        2.83       0.020
  YS02001633           JUNCTION    632.40  1392.20     0  02:22        1.04        3.87       0.093
  YS02001641           JUNCTION      0.00  1391.57     0  02:22           0        3.87       0.068
  YS02001644           JUNCTION    565.54  1811.33     0  02:22       0.899        4.76       0.068
  YS02001647           JUNCTION      0.00  1811.27     0  02:22           0        4.74       0.009
  YS02001649           JUNCTION      0.00  2064.11     0  02:22           0        5.55       0.002
  YS02001652           JUNCTION      0.00   627.35     0  02:26           0       0.806      -0.120
  YS02001655           JUNCTION      0.15   627.72     0  02:26     0.00443       0.806       0.010
  YS02001658           JUNCTION      0.00   716.68     0  02:24           0       0.801      -0.050
  YS02001661           JUNCTION      0.00   643.48     0  02:26           0       0.802       0.037
  YS02001664           JUNCTION    559.10   559.10     0  02:25       0.802       0.802      -0.011
  YS02001745           JUNCTION    363.78   363.78     0  02:25       0.499       0.499       0.301
  YS02001748           JUNCTION      0.04   573.27     0  02:25      0.0013       0.499      -0.480
  YS02001751           JUNCTION      0.01   425.27     0  02:28    0.000317       0.506       0.132
  YS02001754           JUNCTION      0.26   405.48     0  02:26     0.00749       0.518      -0.261
  YS02001757           JUNCTION      0.00  3337.39     0  02:25           0        7.83       0.059
  YS02001759           JUNCTION    504.22  1212.61     0  02:24       0.686        1.76      -0.013
  YS02001762           JUNCTION      0.00   708.62     0  02:24           0        1.08       0.008
  YS02001765           JUNCTION      0.00   707.58     0  02:24           0        1.07       0.008
  YS02001767           JUNCTION      0.54   706.69     0  02:24      0.0154        1.07      -0.000
  YS02001770           JUNCTION    702.87   703.76     0  02:24        1.06         1.1      -0.022
  YS02001774           JUNCTION      0.00   340.95     0  02:23           0      0.0626       1.726
  YS02001779           JUNCTION      0.01   346.30     0  02:23    0.000144      0.0194      -1.832
  YS02001783           JUNCTION      0.00  1155.57     0  02:24           0        2.98       0.006
  YS02001784           JUNCTION      1.06  1156.73     0  02:24      0.0305        3.01       0.016
  YS02001786           JUNCTION      0.06  1156.75     0  02:24     0.00162        3.01       0.023
  YS02001788           JUNCTION      0.07  1157.90     0  02:24     0.00204        3.02       0.009
  YS02001790           JUNCTION      0.15  1167.21     0  02:26     0.00446        3.02       0.021
  YS02001791           JUNCTION      0.00  1274.96     0  02:27           0        3.02      -0.015
  YS02001793           JUNCTION      0.00  1226.91     0  02:31           0        3.02       0.007
  YS02001882           JUNCTION      0.00    53.93     0  02:21           0      0.0124       4.649
  YS02001884           JUNCTION      0.00    71.82     0  02:20           0      0.0478       5.286
  YS02001887           JUNCTION    550.73   550.73     0  02:25       0.731       0.763       0.573
  YS02001890           JUNCTION      0.00   550.51     0  02:25           0       0.723       0.693
  YS02001895           JUNCTION      0.00   509.91     0  02:26           0       0.711       0.178
  YS02001898           JUNCTION      0.00   510.07     0  02:26           0        0.71       0.052
  YS02001901           JUNCTION      0.00   510.13     0  02:26           0       0.712       0.437
  YS02001904           JUNCTION      0.00   510.51     0  02:26           0       0.716       0.361
  YS02001907           JUNCTION      0.00  1506.74     0  02:24           0        2.32       0.744
  YS02001910           JUNCTION      0.00  1018.47     0  02:24           0        1.61       0.439
  YS02001915           JUNCTION    614.00  1018.13     0  02:24           1        1.65       0.093
  YS02001918           JUNCTION      0.00   437.01     0  02:24           0       0.678       0.025
  YS02001920           JUNCTION      2.87   436.81     0  02:24      0.0827       0.661       0.133
  YS02001923           JUNCTION      0.04   395.81     0  02:24     0.00109       0.563      -0.089
  YS02001926           JUNCTION      0.05   531.23     0  02:23      0.0015       0.543       0.029
  YS02001929           JUNCTION    295.86   363.28     0  02:23       0.529        0.53      -0.036
  YS02006553           JUNCTION      0.00   792.77     0  02:36           0        1.96       0.597
  YS02006556           JUNCTION      0.00   792.94     0  02:35           0        1.97       0.397
  YS02006558           JUNCTION    723.55  1171.30     0  02:22        1.06        3.01       0.115
  YS02006561           JUNCTION      0.00  1171.01     0  02:22           0        2.98      -0.002
  YS02163301           JUNCTION      0.00   929.63     0  02:22           0        2.83       0.056
  YS02163601           JUNCTION      0.11  1392.19     0  02:22     0.00317        3.87       0.129
  YS02164001           JUNCTION      0.00  1392.31     0  02:22           0        3.86       0.055
  CC-1                 OUTFALL       0.00   683.00     0  00:00           0        2.91       0.000
  CC-2                 OUTFALL       0.00   683.00     0  00:00           0        2.93       0.000
  JK-1                 OUTFALL       0.00  1000.00     0  00:00           0        1.19       0.000
  JK-2                 OUTFALL       0.00  1000.00     0  00:00           0        1.14       0.000
  WSC                  OUTFALL       0.00   546.86     0  02:45           0           4       0.000
  CC-storage           STORAGE       0.00  3337.93     0  02:25           0          10      -0.301
  JK-storage           STORAGE       0.00  1243.91     0  02:30           0        3.17      -0.541
  
  
  **********************
  Node Surcharge Summary
  **********************
  
  Surcharging occurs when water rises above the top of the highest conduit.
  ---------------------------------------------------------------------
                                               Max. Height   Min. Depth
                                   Hours       Above Crown    Below Rim
  Node                 Type      Surcharged         Meters       Meters
  ---------------------------------------------------------------------
  WS02006109           JUNCTION        1.04          0.416        1.404
  WS02006110           JUNCTION        0.31          0.352        1.498
  WS02006112           JUNCTION        0.28          0.052        1.628
  WS02006228           JUNCTION        1.03          0.351        1.849
  WS02006229           JUNCTION        1.04          0.412        2.038
  WS02006230           JUNCTION        0.32          0.312        1.258
  WS02006231           JUNCTION        0.38          0.564        0.966
  WS02006232           JUNCTION        1.06          0.647        0.833
  WS02006234           JUNCTION        0.61          0.575        0.665
  WS02006235           JUNCTION        1.02          0.653        0.637
  WS02006238           JUNCTION        1.04          0.669        0.761
  WS02006239           JUNCTION        1.03          0.617        0.673
  WS02006240           JUNCTION        1.03          0.596        0.794
  WS02006242           JUNCTION        1.04          0.620        0.200
  WS02006243           JUNCTION        1.02          0.513        0.257
  WS02006245           JUNCTION        1.02          0.482        0.368
  WS02006247           JUNCTION        1.02          0.492        0.268
  WS02006248           JUNCTION        1.01          0.380        0.000
  WS02006249           JUNCTION        1.01          0.390        0.000
  WS02006251           JUNCTION        0.41          0.636        0.544
  WS02006252           JUNCTION        1.27          1.100        0.000
  WS02006256           JUNCTION        6.12          2.050        0.000
  YS02001580           JUNCTION        0.33          0.450        0.000
  YS02001583           JUNCTION        0.34          0.500        0.000
  YS02001586           JUNCTION        0.44          0.510        0.000
  YS02001590           JUNCTION        0.51          0.750        0.000
  YS02001593           JUNCTION        0.51          0.840        0.000
  YS02001596           JUNCTION        0.60          1.070        0.000
  YS02001600           JUNCTION        0.73          1.190        0.000
  YS02001601           JUNCTION        1.05          1.440        0.000
  YS02001602           JUNCTION        0.95          1.270        0.000
  YS02001605           JUNCTION        0.90          1.180        0.000
  YS02001607           JUNCTION        0.47          0.680        0.000
  YS02001610           JUNCTION        0.49          0.680        0.000
  YS02001613           JUNCTION        0.46          0.700        0.000
  YS02001616           JUNCTION        0.43          0.610        0.000
  YS02001619           JUNCTION        0.42          0.610        0.000
  YS02001622           JUNCTION        0.42          0.620        0.000
  YS02001625           JUNCTION        0.57          0.780        0.000
  YS02001629           JUNCTION        0.37          0.470        0.000
  YS02001633           JUNCTION        0.58          1.060        0.000
  YS02001641           JUNCTION        0.51          1.083        0.017
  YS02001644           JUNCTION        0.47          0.920        0.000
  YS02001647           JUNCTION        0.30          0.844        0.056
  YS02001649           JUNCTION        0.38          1.050        0.000
  YS02001652           JUNCTION        0.24          1.130        0.000
  YS02001655           JUNCTION        0.14          1.200        0.000
  YS02001658           JUNCTION        0.04          1.300        0.000
  YS02001748           JUNCTION        0.01          0.969        0.221
  YS02001751           JUNCTION        0.07          0.949        0.251
  YS02001754           JUNCTION        0.16          1.025        0.125
  YS02001757           JUNCTION        0.41          1.005        0.205
  YS02001759           JUNCTION        0.34          0.978        0.232
  YS02001762           JUNCTION        0.31          1.120        0.030
  YS02001765           JUNCTION        0.28          1.061        0.039
  YS02001767           JUNCTION        0.26          1.030        0.000
  YS02001770           JUNCTION        0.25          0.920        0.000
  YS02001774           JUNCTION        0.30          1.034        0.016
  YS02001779           JUNCTION        0.17          0.680        0.000
  YS02001783           JUNCTION        0.34          0.645        0.955
  YS02001784           JUNCTION        0.32          0.424        1.066
  YS02001786           JUNCTION        0.22          0.150        1.280
  YS02001882           JUNCTION        0.29          0.830        0.000
  YS02001884           JUNCTION        0.30          0.870        0.000
  YS02001887           JUNCTION        0.33          0.880        0.070
  YS02001890           JUNCTION        0.34          0.760        0.000
  YS02001895           JUNCTION        0.28          0.584        0.166
  YS02001898           JUNCTION        0.27          0.615        0.125
  YS02001901           JUNCTION        0.32          0.766        0.104
  YS02001904           JUNCTION        0.31          0.850        0.000
  YS02001907           JUNCTION        0.53          0.950        0.000
  YS02001910           JUNCTION        0.36          1.100        0.000
  YS02001915           JUNCTION        0.29          1.000        0.000
  YS02001918           JUNCTION        0.22          0.810        0.000
  YS02001920           JUNCTION        0.23          1.140        0.000
  YS02001923           JUNCTION        0.01          0.820        0.000
  YS02001926           JUNCTION        0.01          0.900        0.000
  YS02001929           JUNCTION        0.01          0.780        0.000
  YS02006553           JUNCTION        0.54          1.190        0.000
  YS02006556           JUNCTION        0.44          1.350        0.000
  YS02006558           JUNCTION        0.43          1.400        0.000
  YS02006561           JUNCTION        0.18          0.477        0.673
  YS02163301           JUNCTION        0.56          0.935        0.095
  YS02163601           JUNCTION        0.60          1.070        0.010
  YS02164001           JUNCTION        0.52          0.989        0.111
  
  
  *********************
  Node Flooding Summary
  *********************
  
  Flooding refers to all water that overflows a node, whether it ponds or not.
  --------------------------------------------------------------------------
                                                             Total   Maximum
                                 Maximum   Time of Max       Flood    Ponded
                        Hours       Rate    Occurrence      Volume     Depth
  Node                 Flooded       LPS   days hr:min    10^6 ltr    Meters
  --------------------------------------------------------------------------
  WS02006248              0.01      8.08      0  02:45       0.000     0.000
  WS02006249              0.39     99.00      0  02:30       0.095     0.000
  WS02006252              0.01    245.63      0  00:00       0.000     0.000
  WS02006256              0.75    293.19      0  00:00       0.238     0.000
  YS02001580              0.01    127.49      0  02:19       0.000     0.000
  YS02001583              0.01     40.36      0  02:19       0.000     0.000
  YS02001586              0.23    136.50      0  02:26       0.063     0.000
  YS02001590              0.01     13.35      0  02:43       0.000     0.000
  YS02001593              0.01     16.49      0  02:43       0.000     0.000
  YS02001596              0.01     10.95      0  02:43       0.000     0.000
  YS02001600              0.01     16.24      0  02:43       0.000     0.000
  YS02001601              0.39    762.36      0  02:26       0.597     0.000
  YS02001602              0.29     62.08      0  02:30       0.056     0.000
  YS02001605              0.01      1.90      0  02:19       0.000     0.000
  YS02001607              0.01     23.24      0  02:19       0.000     0.000
  YS02001610              0.24    302.88      0  02:27       0.164     0.000
  YS02001613              0.01      0.65      0  02:21       0.000     0.000
  YS02001616              0.01     59.03      0  02:19       0.000     0.000
  YS02001619              0.01     52.22      0  02:19       0.000     0.000
  YS02001622              0.01     90.74      0  02:19       0.000     0.000
  YS02001625              0.21    862.91      0  02:26       0.308     0.000
  YS02001629              0.04    131.78      0  02:19       0.004     0.000
  YS02001644              0.03    103.47      0  02:26       0.006     0.000
  YS02001649              0.01      7.85      0  02:24       0.000     0.000
  YS02001652              0.01     72.43      0  02:23       0.000     0.000
  YS02001655              0.01    282.95      0  02:23       0.000     0.000
  YS02001658              0.01    450.83      0  02:24       0.000     0.000
  YS02001767              0.01     67.52      0  02:23       0.000     0.000
  YS02001770              0.01     84.01      0  02:23       0.000     0.000
  YS02001779              0.01    300.91      0  02:23       0.002     0.000
  YS02001882              0.01     12.99      0  02:21       0.000     0.000
  YS02001884              0.01     14.47      0  02:21       0.000     0.000
  YS02001890              0.06     52.39      0  02:25       0.007     0.000
  YS02001904              0.01      1.19      0  02:23       0.000     0.000
  YS02001907              0.17   1051.44      0  02:24       0.348     0.000
  YS02001910              0.01      6.49      0  02:23       0.000     0.000
  YS02001915              0.01     73.71      0  02:21       0.000     0.000
  YS02001918              0.01    122.15      0  02:23       0.001     0.000
  YS02001920              0.01     21.65      0  02:23       0.000     0.000
  YS02001923              0.01    241.78      0  02:23       0.000     0.000
  YS02001926              0.01    409.96      0  02:23       0.002     0.000
  YS02001929              0.01    198.95      0  02:23       0.001     0.000
  YS02006553              0.01      1.06      0  02:23       0.000     0.000
  YS02006556              0.01      1.23      0  02:23       0.000     0.000
  YS02006558              0.01      0.01      0  02:23       0.000     0.000
  
  
  **********************
  Storage Volume Summary
  **********************
  
  ------------------------------------------------------------------------------------------------
                         Average    Avg   Evap  Exfil     Maximum    Max    Time of Max    Maximum
                          Volume   Pcnt   Pcnt   Pcnt      Volume   Pcnt     Occurrence    Outflow
  Storage Unit           1000 m³   Full   Loss   Loss     1000 m³   Full    days hr:min        LPS
  ------------------------------------------------------------------------------------------------
  CC-storage               2.148   33.5    0.0    0.0       4.009   62.5       0  02:42    1783.53
  JK-storage               0.087   29.9    0.0    0.0       0.213   73.1       0  02:28    2300.00
  
  
  ***********************
  Outfall Loading Summary
  ***********************
  
  -----------------------------------------------------------
                         Flow       Avg       Max       Total
                         Freq      Flow      Flow      Volume
  Outfall Node           Pcnt       LPS       LPS    10^6 ltr
  -----------------------------------------------------------
  CC-1                  19.66    683.00    683.00       2.912
  CC-2                  23.93    683.00    683.00       2.933
  JK-1                   6.83   1000.00   1000.00       1.193
  JK-2                   7.14   1000.00   1000.00       1.140
  WSC                   99.96    211.40    546.86       4.005
  -----------------------------------------------------------
  System                31.50   3577.40   3912.86      12.183
  
  
  ********************
  Link Flow Summary
  ********************
  
  -----------------------------------------------------------------------------
                                 Maximum  Time of Max   Maximum    Max/    Max/
                                  |Flow|   Occurrence   |Veloc|    Full    Full
  Link                 Type          LPS  days hr:min     m/sec    Flow   Depth
  -----------------------------------------------------------------------------
  1                    CONDUIT    546.86     0  02:45      2.81    0.19    0.30
  WS02003060WS02003069 CONDUIT    546.73     0  02:43      1.64    0.21    0.34
  WS02003066WSF200     CONDUIT    529.98     0  02:43      2.84    0.09    0.22
  WS02003067WS02003066 CONDUIT    529.89     0  02:43      1.20    0.17    0.41
  WS02003069WS02003072 CONDUIT    546.45     0  02:44      1.36    0.26    0.38
  WS02003072WS02003073 CONDUIT    545.95     0  02:45      1.43    1.18    0.37
  WS02004401WS02004402 CONDUIT    535.05     0  02:40      0.98    0.64    0.86
  WS02004402WS02004403 CONDUIT    534.86     0  02:40      0.97    0.77    0.88
  WS02004403WS02004404 CONDUIT    534.62     0  02:40      0.92    0.39    0.93
  WS02004404WS02004405 CONDUIT    534.73     0  02:40      1.08    5.24    0.96
  WS02004405WS02004406 CONDUIT    534.80     0  02:40      0.99    1.05    0.95
  WS02004406WS02004407 CONDUIT    534.64     0  02:41      1.04    0.24    0.62
  WS02004407WS02004409 CONDUIT    534.48     0  02:41      1.48    0.19    0.48
  WS02004409WS02004410 CONDUIT    532.93     0  02:41      0.97    0.69    0.67
  WS02004410WS02004411 CONDUIT    531.53     0  02:42      0.93    0.73    0.68
  WS02004411WS02004412 CONDUIT    530.62     0  02:42      0.92    0.75    0.69
  WS02004412WS02004413 CONDUIT    530.15     0  02:42      0.81    0.36    0.77
  WS02004413WS02003067 CONDUIT    529.71     0  02:43      1.10    0.23    0.59
  WS02006109WS02006110 CONDUIT    562.25     0  02:46      1.12    1.08    1.00
  WS02006110WS02006113 CONDUIT    570.69     0  02:46      1.39    0.52    0.79
  WS02006111WS02006112 CONDUIT    543.47     0  03:01      1.81    0.26    0.67
  WS02006112WS02006115 CONDUIT    547.93     0  03:01      0.78    0.32    0.87
  WS02006113WS02006111 CONDUIT    562.90     0  03:01      2.47    0.67    0.46
  WS02006115WS02006116 CONDUIT    537.17     0  02:50      0.97    0.69    0.76
  WS02006116WS02004401 CONDUIT    535.43     0  02:40      0.98    0.74    0.84
  WS02006228WS02006109 CONDUIT    561.37     0  02:46      1.12    2.45    1.00
  WS02006229WS02006228 CONDUIT    561.00     0  02:46      1.14    1.86    1.00
  WS02006230WS02006229 CONDUIT    560.86     0  02:46      1.46   12.48    1.00
  WS02006231WS02006230 CONDUIT    577.29     0  02:45      1.57    8.76    1.00
  WS02006232WS02006231 CONDUIT    570.99     0  02:58      1.49    1.20    1.00
  WS02006234WS02006232 CONDUIT    569.78     0  02:58      1.48    1.15    1.00
  WS02006235WS02006234 CONDUIT    565.59     0  02:58      1.47    5.97    1.00
  WS02006238WS02006235 CONDUIT    424.28     0  02:40      1.45    0.95    1.00
  WS02006239WS02006238 CONDUIT    424.30     0  02:40      1.10    1.36    1.00
  WS02006240WS02006239 CONDUIT    424.24     0  02:40      1.24    1.33    1.00
  WS02006242WS02006240 CONDUIT    421.35     0  02:40      1.13    1.67    1.00
  WS02006243WS02006242 CONDUIT    420.95     0  02:40      1.40    0.90    1.00
  WS02006245WS02006243 CONDUIT    420.65     0  02:40      1.45    1.24    1.00
  WS02006247WS02006245 CONDUIT    420.07     0  02:40      1.43    3.33    1.00
  WS02006248WS02006247 CONDUIT    419.84     0  02:40      1.44    0.91    1.00
  WS02006249WS02006248 CONDUIT    420.28     0  02:40      1.36    2.30    1.00
  WS02006251WS02006249 CONDUIT    459.02     0  00:00      1.99    1.32    1.00
  WS02006252WS02006251 CONDUIT    406.75     0  02:30     24.61    1.49    1.00
  WS02006256WS02006235 CONDUIT    288.91     0  00:00      4.23    3.06    1.00
  WSF200WS02003060     CONDUIT    530.28     0  02:43      2.05    0.12    0.28
  YS02001580YS02001583 CONDUIT    137.91     0  02:19      0.66    0.53    1.00
  YS02001583YS02001586 CONDUIT    157.16     0  02:19      0.66    0.24    1.00
  YS02001586YS02001590 CONDUIT    318.12     0  02:23      1.25    0.56    1.00
  YS02001590YS02001593 CONDUIT    317.96     0  02:26      1.12    2.00    1.00
  YS02001593YS02001596 CONDUIT    317.87     0  02:28      1.73    0.50    1.00
  YS02001596YS02001600 CONDUIT    318.03     0  02:27      1.23    0.62    1.00
  YS02001600YS02001601 CONDUIT    317.88     0  02:28      1.12    0.55    1.00
  YS02001601YS02001602 CONDUIT    515.97     0  02:19      1.82    1.86    1.00
  YS02001602YS02001605 CONDUIT    515.95     0  02:19      1.82   10.92    1.00
  YS02001605YS02001607 CONDUIT    515.75     0  02:19      1.82    2.83    1.00
  YS02001607YS02001610 CONDUIT    519.13     0  02:18      0.66    0.49    1.00
  YS02001610YS02001613 CONDUIT    522.10     0  02:18      0.66    0.60    1.00
  YS02001613YS02001616 CONDUIT    518.27     0  02:19      0.67    0.44    1.00
  YS02001616YS02001619 CONDUIT    498.36     0  02:19      0.67    0.87    1.00
  YS02001619YS02001622 CONDUIT    929.92     0  02:22      1.18    1.37    1.00
  YS02001622YS02001625 CONDUIT    929.78     0  02:22      1.18    0.50    1.00
  YS02001625YS02001629 CONDUIT    929.89     0  02:22      1.19    0.44    1.00
  YS02001629YS02163301 CONDUIT    929.63     0  02:22      1.18    1.14    1.00
  YS02001633YS02163601 CONDUIT   1392.08     0  02:22      1.77    1.46    1.00
  YS02001641YS02001644 CONDUIT   1391.17     0  02:22      1.77    4.50    1.00
  YS02001644YS02001647 CONDUIT   1811.27     0  02:22      2.31    1.06    1.00
  YS02001647YS02001649 CONDUIT   1833.69     0  02:22      2.34    0.97    1.00
  YS02001649YS02001757 CONDUIT   2067.61     0  02:22      2.64    1.25    1.00
  YS02001652YS02001649 CONDUIT    628.05     0  02:26      0.80    0.31    1.00
  YS02001655YS02001652 CONDUIT    627.35     0  02:26      1.28    0.30    1.00
  YS02001658YS02001655 CONDUIT    627.57     0  02:26      1.91    0.27    1.00
  YS02001661YS02001658 CONDUIT    716.68     0  02:24      2.34    0.28    0.94
  YS02001664YS02001661 CONDUIT    643.48     0  02:26      2.35    0.20    0.62
  YS02001745YS02001748 CONDUIT    573.22     0  02:25      2.20    0.22    0.75
  YS02001748YS02001751 CONDUIT    425.25     0  02:28      1.74    0.21    1.00
  YS02001751YS02001754 CONDUIT    405.22     0  02:26      1.44    0.20    1.00
  YS02001754YS02001757 CONDUIT    406.39     0  02:26      0.52    0.16    1.00
  YS02001757CaochengTiaoxuchi CONDUIT   3337.93     0  02:25      4.26    1.44    1.00
  YS02001759YS02001757 CONDUIT   1213.24     0  02:24      1.54    0.86    1.00
  YS02001762YS02001759 CONDUIT    709.57     0  02:24      0.90    0.82    1.00
  YS02001765YS02001762 CONDUIT    708.62     0  02:24      0.90    0.66    1.00
  YS02001767YS02001765 CONDUIT    707.58     0  02:24      0.90    0.89    1.00
  YS02001770YS02001767 CONDUIT    706.16     0  02:24      0.90    2.80    1.00
  YS02001774YS02001770 CONDUIT    340.95     0  02:23      0.43    0.22    1.00
  YS02001779YS02001774 CONDUIT    346.30     0  02:23      0.45    0.17    1.00
  YS02001783YS02001784 CONDUIT   1155.67     0  02:24      2.30    1.59    1.00
  YS02001784YS02001785 CONDUIT   1156.70     0  02:24      2.30    2.69    1.00
  YS02001786YS02001788 CONDUIT   1157.83     0  02:24      2.47    2.23    0.89
  YS02001788YS02001790 CONDUIT   1167.06     0  02:26      2.71    0.86    0.83
  YS02001790YS02001791 CONDUIT   1274.96     0  02:27      3.42    1.39    0.70
  YS02001791YS02001793 CONDUIT   1226.91     0  02:31      6.76    0.53    0.44
  YS02001793JiankangQianchi CONDUIT   1243.91     0  02:30      2.47    0.10    0.64
  YS02001882YS02001884 CONDUIT     53.93     0  02:21      0.08    0.06    1.00
  YS02001884YS02001887 CONDUIT     71.82     0  02:20      0.09    0.10    1.00
  YS02001887YS02001890 CONDUIT    550.51     0  02:25      0.70    0.94    1.00
  YS02001890YS02001895 CONDUIT    509.91     0  02:26      0.65    0.24    1.00
  YS02001895YS02001898 CONDUIT    510.07     0  02:26      0.65    0.89    1.00
  YS02001898YS02001901 CONDUIT    510.13     0  02:26      0.65    0.33    1.00
  YS02001901YS02001904 CONDUIT    510.51     0  02:26      0.65    0.79    1.00
  YS02001904YS02001907 CONDUIT    510.34     0  02:26      0.65    0.18    1.00
  YS02001907YS02006553 CONDUIT    792.77     0  02:36      0.88    0.93    1.00
  YS02001910YS02001907 CONDUIT   1018.22     0  02:24      1.30    0.57    1.00
  YS02001915YS02001910 CONDUIT   1018.47     0  02:24      1.30    0.51    1.00
  YS02001918YS02001915 CONDUIT    437.00     0  02:24      0.56    0.24    1.00
  YS02001920YS02001918 CONDUIT    437.01     0  02:24      0.66    0.42    1.00
  YS02001923YS02001920 CONDUIT    433.94     0  02:24      0.69    0.19    1.00
  YS02001926YS02001923 CONDUIT    404.62     0  02:23      0.96    0.58    1.00
  YS02001929YS02001926 CONDUIT    390.37     0  02:24      1.13    0.19    1.00
  YS02006553YS02006556 CONDUIT    792.94     0  02:35      1.01    0.68    1.00
  YS02006556YS02006558 CONDUIT    795.29     0  02:35      1.01    0.63    1.00
  YS02006558YS02006561 CONDUIT   1171.01     0  02:22      4.14    2.59    1.00
  YS02006561YS02001783 CONDUIT   1155.57     0  02:24      2.30    0.60    1.00
  YS02163301YS02001633 CONDUIT    929.46     0  02:22      1.18    0.87    1.00
  YS02163601YS02164001 CONDUIT   1392.31     0  02:22      1.77    1.23    1.00
  YS02164001YS02001641 CONDUIT   1391.57     0  02:22      1.77    1.90    1.00
  CC-R1                PUMP       683.00     0  00:00              1.00
  CC-R2                PUMP       683.00     0  00:00              1.00
  CC-S1                PUMP       200.00     0  00:00              1.00
  CC-S2                PUMP       200.00     0  00:00              1.00
  JK-R1                PUMP      1000.00     0  00:00              1.00
  JK-R2                PUMP      1000.00     0  00:00              1.00
  JK-S                 PUMP       300.00     0  00:00              1.00
  
  
  ***************************
  Flow Classification Summary
  ***************************
  
  -------------------------------------------------------------------------------------
                      Adjusted    ---------- Fraction of Time in Flow Class ---------- 
                       /Actual         Up    Down  Sub   Sup   Up    Down  Norm  Inlet 
  Conduit               Length    Dry  Dry   Dry   Crit  Crit  Crit  Crit  Ltd   Ctrl  
  -------------------------------------------------------------------------------------
  1                       1.00   0.00  0.00  0.00  0.00  1.00  0.00  0.00  0.31  0.00
  WS02003060WS02003069    1.00   0.00  0.00  0.00  0.98  0.02  0.00  0.00  0.79  0.00
  WS02003066WSF200        1.00   0.13  0.00  0.00  0.00  0.87  0.00  0.00  0.82  0.00
  WS02003067WS02003066    1.00   0.10  0.02  0.00  0.88  0.00  0.00  0.00  0.00  0.00
  WS02003069WS02003072    1.00   0.00  0.00  0.00  0.99  0.01  0.00  0.00  0.84  0.00
  WS02003072WS02003073    1.00   0.00  0.00  0.00  0.00  0.00  0.00  1.00  0.00  0.00
  WS02004401WS02004402    1.00   0.02  0.00  0.00  0.98  0.00  0.00  0.00  0.00  0.00
  WS02004402WS02004403    1.00   0.02  0.00  0.00  0.97  0.00  0.00  0.00  0.00  0.00
  WS02004403WS02004404    1.00   0.00  0.03  0.00  0.97  0.00  0.00  0.00  0.00  0.00
  WS02004404WS02004405    1.00   0.00  0.00  0.00  1.00  0.00  0.00  0.00  0.00  0.00
  WS02004405WS02004406    1.00   0.00  0.00  0.00  1.00  0.00  0.00  0.00  0.00  0.00
  WS02004406WS02004407    1.00   0.00  0.05  0.00  0.95  0.00  0.00  0.00  0.00  0.00
  WS02004407WS02004409    1.00   0.05  0.00  0.00  0.94  0.01  0.00  0.00  0.94  0.00
  WS02004409WS02004410    1.00   0.05  0.00  0.00  0.95  0.00  0.00  0.00  0.03  0.00
  WS02004410WS02004411    1.00   0.05  0.00  0.00  0.95  0.00  0.00  0.00  0.01  0.00
  WS02004411WS02004412    1.00   0.05  0.00  0.00  0.95  0.00  0.00  0.00  0.00  0.00
  WS02004412WS02004413    1.00   0.05  0.00  0.00  0.94  0.00  0.00  0.00  0.01  0.00
  WS02004413WS02003067    1.00   0.06  0.04  0.00  0.00  0.00  0.90  0.00  0.00  0.00
  WS02006109WS02006110    1.00   0.00  0.01  0.00  0.98  0.00  0.01  0.00  0.00  0.00
  WS02006110WS02006113    1.00   0.01  0.01  0.00  0.98  0.00  0.00  0.00  0.00  0.00
  WS02006111WS02006112    1.00   0.02  0.00  0.00  0.98  0.00  0.00  0.00  0.98  0.00
  WS02006112WS02006115    1.00   0.02  0.00  0.00  0.97  0.00  0.00  0.00  0.00  0.00
  WS02006113WS02006111    1.00   0.02  0.00  0.00  0.00  0.98  0.00  0.00  0.10  0.00
  WS02006115WS02006116    1.00   0.02  0.00  0.00  0.97  0.00  0.00  0.01  0.00  0.00
  WS02006116WS02004401    1.00   0.02  0.00  0.00  0.98  0.00  0.00  0.00  0.00  0.00
  WS02006228WS02006109    1.00   0.00  0.00  0.00  1.00  0.00  0.00  0.00  0.00  0.00
  WS02006229WS02006228    1.00   0.00  0.00  0.00  0.99  0.00  0.00  0.01  0.00  0.00
  WS02006230WS02006229    1.00   0.00  0.00  0.00  0.99  0.00  0.00  0.01  0.03  0.00
  WS02006231WS02006230    1.00   0.00  0.00  0.00  0.15  0.00  0.85  0.00  0.00  0.00
  WS02006232WS02006231    1.00   0.00  0.00  0.00  0.98  0.00  0.01  0.00  0.00  0.00
  WS02006234WS02006232    1.00   0.00  0.00  0.00  1.00  0.00  0.00  0.00  0.08  0.00
  WS02006235WS02006234    1.00   0.00  0.00  0.00  0.83  0.00  0.17  0.00  0.00  0.00
  WS02006238WS02006235    1.00   0.00  0.00  0.00  1.00  0.00  0.00  0.00  0.00  0.00
  WS02006239WS02006238    1.00   0.00  0.00  0.00  1.00  0.00  0.00  0.00  0.25  0.00
  WS02006240WS02006239    1.00   0.00  0.00  0.00  0.60  0.00  0.00  0.40  0.04  0.00
  WS02006242WS02006240    1.00   0.00  0.00  0.00  0.99  0.00  0.01  0.00  0.00  0.00
  WS02006243WS02006242    1.00   0.00  0.00  0.00  0.99  0.00  0.00  0.01  0.62  0.00
  WS02006245WS02006243    1.00   0.00  0.00  0.00  0.72  0.00  0.00  0.28  0.01  0.00
  WS02006247WS02006245    1.00   0.00  0.00  0.00  0.98  0.00  0.00  0.02  0.00  0.00
  WS02006248WS02006247    1.00   0.00  0.00  0.00  0.99  0.00  0.00  0.01  0.49  0.00
  WS02006249WS02006248    1.00   0.00  0.00  0.00  0.39  0.00  0.61  0.00  0.00  0.00
  WS02006251WS02006249    1.00   0.00  0.00  0.00  0.99  0.01  0.00  0.00  0.59  0.00
  WS02006252WS02006251    1.00   0.00  0.50  0.00  0.05  0.00  0.44  0.00  0.00  0.00
  WS02006256WS02006235    1.00   0.00  0.00  0.00  0.98  0.02  0.00  0.00  0.00  0.00
  WSF200WS02003060        1.00   0.00  0.13  0.00  0.41  0.47  0.00  0.00  0.57  0.00
  YS02001580YS02001583    1.00   0.29  0.56  0.00  0.16  0.00  0.00  0.00  0.65  0.00
  YS02001583YS02001586    1.00   0.42  0.37  0.00  0.21  0.00  0.00  0.00  0.65  0.00
  YS02001586YS02001590    1.00   0.13  0.00  0.00  0.41  0.05  0.00  0.42  0.39  0.00
  YS02001590YS02001593    1.00   0.13  0.01  0.00  0.08  0.00  0.79  0.00  0.00  0.00
  YS02001593YS02001596    1.00   0.14  0.00  0.00  0.09  0.01  0.00  0.76  0.02  0.00
  YS02001596YS02001600    1.00   0.14  0.00  0.00  0.15  0.02  0.00  0.69  0.05  0.00
  YS02001600YS02001601    1.00   0.13  0.01  0.00  0.86  0.00  0.00  0.00  0.63  0.00
  YS02001601YS02001602    1.00   0.13  0.01  0.00  0.86  0.00  0.00  0.00  0.00  0.00
  YS02001602YS02001605    1.00   0.14  0.00  0.00  0.86  0.00  0.00  0.00  0.00  0.00
  YS02001605YS02001607    1.00   0.14  0.00  0.00  0.86  0.00  0.00  0.00  0.00  0.00
  YS02001607YS02001610    1.00   0.13  0.01  0.00  0.86  0.00  0.00  0.00  0.02  0.00
  YS02001610YS02001613    1.00   0.13  0.00  0.00  0.87  0.00  0.00  0.00  0.01  0.00
  YS02001613YS02001616    1.00   0.13  0.00  0.00  0.87  0.00  0.00  0.00  0.01  0.00
  YS02001616YS02001619    1.00   0.13  0.00  0.00  0.87  0.00  0.00  0.00  0.00  0.00
  YS02001619YS02001622    1.00   0.13  0.00  0.00  0.87  0.00  0.00  0.00  0.28  0.00
  YS02001622YS02001625    1.00   0.13  0.00  0.00  0.87  0.00  0.00  0.00  0.06  0.00
  YS02001625YS02001629    1.00   0.13  0.06  0.00  0.11  0.00  0.69  0.00  0.00  0.00
  YS02001629YS02163301    1.00   0.17  0.01  0.00  0.82  0.00  0.00  0.00  0.00  0.00
  YS02001633YS02163601    1.00   0.00  0.01  0.00  0.99  0.00  0.00  0.00  0.16  0.00
  YS02001641YS02001644    1.00   0.00  0.01  0.00  0.99  0.00  0.00  0.00  0.00  0.00
  YS02001644YS02001647    1.00   0.00  0.19  0.00  0.81  0.00  0.00  0.00  0.00  0.00
  YS02001647YS02001649    1.00   0.00  0.19  0.00  0.50  0.31  0.00  0.00  0.57  0.00
  YS02001649YS02001757    1.00   0.00  0.00  0.00  0.68  0.32  0.00  0.00  0.46  0.00
  YS02001652YS02001649    1.00   0.00  0.00  0.00  0.95  0.05  0.00  0.00  0.79  0.00
  YS02001655YS02001652    1.00   0.00  0.00  0.00  0.14  0.01  0.00  0.85  0.06  0.00
  YS02001658YS02001655    1.00   0.00  0.15  0.00  0.61  0.24  0.00  0.00  0.74  0.00
  YS02001661YS02001658    1.00   0.15  0.00  0.00  0.45  0.40  0.00  0.00  0.74  0.00
  YS02001664YS02001661    1.00   0.13  0.00  0.00  0.78  0.10  0.00  0.00  0.86  0.00
  YS02001745YS02001748    1.00   0.00  0.00  0.00  0.04  0.01  0.00  0.95  0.03  0.00
  YS02001748YS02001751    1.00   0.00  0.00  0.00  0.80  0.20  0.00  0.00  0.78  0.00
  YS02001751YS02001754    1.00   0.00  0.00  0.00  0.12  0.00  0.00  0.88  0.04  0.00
  YS02001754YS02001757    1.00   0.00  0.00  0.00  1.00  0.00  0.00  0.00  0.87  0.00
  YS02001757CaochengTiaoxuchi    1.00   0.00  0.00  0.00  0.96  0.04  0.00  0.00  0.83  0.00
  YS02001759YS02001757    1.00   0.00  0.00  0.00  1.00  0.00  0.00  0.00  0.63  0.00
  YS02001762YS02001759    1.00   0.00  0.00  0.00  1.00  0.00  0.00  0.00  0.07  0.00
  YS02001765YS02001762    1.00   0.00  0.00  0.00  1.00  0.00  0.00  0.00  0.75  0.00
  YS02001767YS02001765    1.00   0.00  0.00  0.00  1.00  0.00  0.00  0.00  0.00  0.00
  YS02001770YS02001767    1.00   0.00  0.00  0.00  1.00  0.00  0.00  0.00  0.00  0.00
  YS02001774YS02001770    1.00   0.00  0.14  0.00  0.69  0.00  0.17  0.00  0.04  0.00
  YS02001779YS02001774    1.00   0.00  0.00  0.00  1.00  0.00  0.00  0.00  0.81  0.00
  YS02001783YS02001784    1.00   0.00  0.20  0.00  0.80  0.00  0.00  0.00  0.56  0.00
  YS02001784YS02001785    1.00   0.00  0.00  0.00  1.00  0.00  0.00  0.00  0.19  0.00
  YS02001786YS02001788    1.00   0.00  0.00  0.00  0.80  0.20  0.00  0.00  0.00  0.00
  YS02001788YS02001790    1.00   0.00  0.00  0.00  0.22  0.78  0.00  0.00  0.84  0.00
  YS02001790YS02001791    1.00   0.00  0.00  0.00  0.01  0.99  0.00  0.00  0.15  0.00
  YS02001791YS02001793    1.00   0.00  0.00  0.00  0.00  1.00  0.00  0.00  0.00  0.00
  YS02001793JiankangQianchi    1.00   0.00  0.00  0.00  0.98  0.02  0.00  0.00  0.99  0.00
  YS02001882YS02001884    1.00   0.16  0.01  0.00  0.83  0.00  0.00  0.00  0.00  0.00
  YS02001884YS02001887    1.00   0.06  0.05  0.00  0.89  0.00  0.00  0.00  0.00  0.00
  YS02001887YS02001890    1.00   0.00  0.00  0.00  0.97  0.00  0.03  0.00  0.00  0.00
  YS02001890YS02001895    1.00   0.00  0.18  0.00  0.82  0.00  0.00  0.00  0.00  0.00
  YS02001895YS02001898    1.00   0.18  0.00  0.00  0.80  0.00  0.02  0.00  0.00  0.00
  YS02001898YS02001901    1.00   0.18  0.01  0.00  0.81  0.00  0.00  0.00  0.01  0.00
  YS02001901YS02001904    1.00   0.18  0.00  0.00  0.82  0.00  0.00  0.00  0.00  0.00
  YS02001904YS02001907    1.00   0.00  0.18  0.00  0.82  0.00  0.00  0.00  0.00  0.00
  YS02001907YS02006553    1.00   0.00  0.02  0.00  0.98  0.00  0.00  0.00  0.00  0.00
  YS02001910YS02001907    1.00   0.00  0.00  0.00  0.97  0.00  0.00  0.03  0.12  0.00
  YS02001915YS02001910    1.00   0.00  0.00  0.00  0.96  0.04  0.00  0.00  0.18  0.00
  YS02001918YS02001915    1.00   0.00  0.01  0.00  0.98  0.02  0.00  0.00  0.78  0.00
  YS02001920YS02001918    1.00   0.00  0.01  0.00  0.99  0.00  0.00  0.00  0.00  0.00
  YS02001923YS02001920    1.00   0.00  0.00  0.00  1.00  0.00  0.00  0.00  0.95  0.00
  YS02001926YS02001923    1.00   0.00  0.07  0.00  0.04  0.00  0.89  0.00  0.00  0.00
  YS02001929YS02001926    1.00   0.00  0.13  0.00  0.87  0.00  0.00  0.00  0.84  0.00
  YS02006553YS02006556    1.00   0.01  0.00  0.00  0.99  0.00  0.00  0.00  0.03  0.00
  YS02006556YS02006558    1.00   0.00  0.00  0.00  1.00  0.00  0.00  0.00  0.00  0.00
  YS02006558YS02006561    1.00   0.20  0.00  0.00  0.03  0.77  0.00  0.00  0.19  0.00
  YS02006561YS02001783    1.00   0.20  0.00  0.00  0.06  0.74  0.00  0.00  0.70  0.00
  YS02163301YS02001633    1.00   0.00  0.17  0.00  0.83  0.00  0.00  0.00  0.00  0.00
  YS02163601YS02164001    1.00   0.00  0.08  0.00  0.92  0.00  0.00  0.00  0.00  0.00
  YS02164001YS02001641    1.00   0.01  0.07  0.00  0.92  0.00  0.00  0.00  0.06  0.00
  
  
  *************************
  Conduit Surcharge Summary
  *************************
  
  ----------------------------------------------------------------------------
                                                           Hours        Hours 
                         --------- Hours Full --------   Above Full   Capacity
  Conduit                Both Ends  Upstream  Dnstream   Normal Flow   Limited
  ----------------------------------------------------------------------------
  WS02003072WS02003073        0.01      0.01      0.01      0.59         0.01
  WS02004404WS02004405        0.01      0.01      0.01      2.66         0.01
  WS02004405WS02004406        0.01      0.01      0.01      0.24         0.01
  WS02006109WS02006110        0.31      0.31      1.06      0.37         0.01
  WS02006110WS02006113        0.01      0.01      1.05      0.01         0.01
  WS02006111WS02006112        0.01      0.01      1.30      0.01         0.01
  WS02006112WS02006115        0.01      0.01      0.28      0.01         0.01
  WS02006228WS02006109        1.04      1.06      1.04      1.67         1.04
  WS02006229WS02006228        1.03      1.04      1.03      1.28         1.03
  WS02006230WS02006229        1.13      1.21      1.13      3.20         1.13
  WS02006231WS02006230        0.32      0.32      0.40      2.89         0.01
  WS02006232WS02006231        0.38      0.38      1.06      0.42         0.01
  WS02006234WS02006232        1.01      1.01      1.06      0.41         0.41
  WS02006235WS02006234        0.60      0.61      1.02      2.78         0.01
  WS02006238WS02006235        1.03      1.03      1.06      0.01         0.01
  WS02006239WS02006238        1.04      1.05      1.04      1.13         0.96
  WS02006240WS02006239        1.03      1.03      1.03      1.14         0.93
  WS02006242WS02006240        1.03      1.03      1.05      1.29         0.01
  WS02006243WS02006242        1.03      1.03      1.04      0.01         0.02
  WS02006245WS02006243        1.02      1.02      1.02      0.83         0.71
  WS02006247WS02006245        1.02      1.02      1.02      2.60         1.02
  WS02006248WS02006247        1.01      1.01      1.02      0.01         0.02
  WS02006249WS02006248        1.01      1.01      1.01      2.55         0.01
  WS02006251WS02006249        1.01      1.01      1.01      1.20         0.97
  WS02006252WS02006251        1.24      1.24      1.27      1.24         0.01
  WS02006256WS02006235        2.79      2.83      6.05      0.78         0.01
  YS02001580YS02001583        0.33      0.33      0.37      0.01         0.01
  YS02001583YS02001586        0.34      0.34      0.44      0.01         0.01
  YS02001586YS02001590        0.45      0.45      0.51      0.01         0.01
  YS02001590YS02001593        0.51      0.51      0.52      0.52         0.01
  YS02001593YS02001596        0.52      0.52      0.60      0.01         0.01
  YS02001596YS02001600        0.64      0.64      0.73      0.01         0.01
  YS02001600YS02001601        0.79      0.79      1.05      0.01         0.01
  YS02001601YS02001602        0.95      0.95      1.09      0.74         0.01
  YS02001602YS02001605        0.90      0.90      0.95      2.01         0.01
  YS02001605YS02001607        0.85      0.90      0.85      1.01         0.85
  YS02001607YS02001610        0.47      0.47      0.49      0.01         0.01
  YS02001610YS02001613        0.46      0.46      0.49      0.01         0.01
  YS02001613YS02001616        0.43      0.43      0.46      0.01         0.01
  YS02001616YS02001619        0.42      0.42      0.43      0.01         0.01
  YS02001619YS02001622        0.42      0.42      0.42      0.53         0.40
  YS02001622YS02001625        0.42      0.42      0.57      0.01         0.01
  YS02001625YS02001629        0.37      0.37      0.57      0.01         0.01
  YS02001629YS02163301        0.55      0.55      0.56      0.18         0.18
  YS02001633YS02163601        0.58      0.58      0.60      0.32         0.32
  YS02001641YS02001644        0.47      0.51      0.47      1.14         0.47
  YS02001644YS02001647        0.30      0.30      0.47      0.04         0.01
  YS02001647YS02001649        0.30      0.30      0.38      0.01         0.01
  YS02001649YS02001757        0.37      0.38      0.41      0.25         0.18
  YS02001652YS02001649        0.26      0.26      0.38      0.01         0.01
  YS02001655YS02001652        0.14      0.14      0.24      0.01         0.01
  YS02001658YS02001655        0.04      0.04      0.14      0.01         0.01
  YS02001661YS02001658        0.01      0.01      0.04      0.01         0.01
  YS02001745YS02001748        0.01      0.01      0.01      0.01         0.01
  YS02001748YS02001751        0.02      0.02      0.07      0.01         0.01
  YS02001751YS02001754        0.07      0.07      0.16      0.01         0.01
  YS02001754YS02001757        0.20      0.20      0.41      0.01         0.01
  YS02001757CaochengTiaoxuchi        0.36      0.41      0.98      0.23         0.15
  YS02001759YS02001757        0.34      0.34      0.41      0.01         0.01
  YS02001762YS02001759        0.31      0.31      0.34      0.01         0.01
  YS02001765YS02001762        0.28      0.28      0.31      0.01         0.01
  YS02001767YS02001765        0.26      0.26      0.28      0.01         0.01
  YS02001770YS02001767        0.26      0.26      0.26      0.34         0.20
  YS02001774YS02001770        0.25      0.25      0.30      0.01         0.01
  YS02001779YS02001774        0.17      0.17      0.30      0.01         0.01
  YS02001783YS02001784        0.32      0.34      0.32      0.47         0.32
  YS02001784YS02001785        0.22      0.32      0.22      0.65         0.22
  YS02001786YS02001788        0.01      0.22      0.01      0.56         0.01
  YS02001790YS02001791        0.01      0.01      0.01      0.30         0.01
  YS02001793JiankangQianchi        0.01      0.01      7.08      0.01         0.01
  YS02001882YS02001884        0.29      0.29      0.30      0.01         0.01
  YS02001884YS02001887        0.32      0.32      0.33      0.01         0.01
  YS02001887YS02001890        0.34      0.34      0.35      0.01         0.01
  YS02001890YS02001895        0.28      0.28      0.36      0.01         0.01
  YS02001895YS02001898        0.27      0.27      0.28      0.01         0.01
  YS02001898YS02001901        0.28      0.28      0.32      0.01         0.01
  YS02001901YS02001904        0.31      0.31      0.32      0.01         0.01
  YS02001904YS02001907        0.31      0.31      0.54      0.01         0.01
  YS02001907YS02006553        0.66      0.66      0.72      0.01         0.01
  YS02001910YS02001907        0.36      0.36      0.53      0.01         0.01
  YS02001915YS02001910        0.29      0.29      0.36      0.01         0.01
  YS02001918YS02001915        0.22      0.22      0.29      0.01         0.01
  YS02001920YS02001918        0.22      0.22      0.23      0.01         0.01
  YS02001923YS02001920        0.18      0.18      0.23      0.01         0.01
  YS02001926YS02001923        0.01      0.01      0.01      0.01         0.01
  YS02001929YS02001926        0.01      0.01      0.01      0.01         0.01
  YS02006553YS02006556        0.44      0.44      0.54      0.01         0.01
  YS02006556YS02006558        0.49      0.49      0.55      0.01         0.01
  YS02006558YS02006561        0.24      0.43      0.24      0.61         0.24
  YS02006561YS02001783        0.18      0.18      0.34      0.01         0.01
  YS02163301YS02001633        0.56      0.56      0.59      0.01         0.01
  YS02163601YS02164001        0.52      0.52      0.60      0.08         0.01
  YS02164001YS02001641        0.51      0.52      0.51      0.58         0.45
  
  
  ***************
  Pumping Summary
  ***************
  
  ---------------------------------------------------------------------------------------------------------
                                                  Min       Avg       Max     Total     Power    % Time Off
                        Percent   Number of      Flow      Flow      Flow    Volume     Usage    Pump Curve
  Pump                 Utilized   Start-Ups       LPS       LPS       LPS  10^6 ltr     Kw-hr    Low   High
  ---------------------------------------------------------------------------------------------------------
  CC-R1                   14.90          20      0.00    683.00    683.00     2.930     52.95    0.0   29.4
  CC-R2                   14.99          22      0.00    683.00    683.00     2.948     51.64    0.0   59.3
  CC-S1                   30.47          19      0.00    200.00    200.00     1.755     10.65    0.0    0.0
  CC-S2                   18.97          13      0.00    200.00    200.00     1.093      6.62    0.0    0.0
  JK-R1                    4.14          15      0.00   1000.00   1000.00     1.193     11.04    0.0    0.0
  JK-R2                    3.97          12      0.00   1000.00   1000.00     1.143      9.31    0.0    0.0
  JK-S                     9.37          26      0.00    300.00    300.00     0.809     13.25    0.0    0.0
  

  Analysis begun on:  Wed Dec 25 13:06:35 2024
  Analysis ended on:  Wed Dec 25 13:06:36 2024
  Total elapsed time: 00:00:01