
  EPA STORM WATER MANAGEMENT MODEL - VERSION 5.2 (Build 5.2.4)
  PYSWMM TOOLKIT API - VERSION v1.0 (2023-11-27)
  ------------------------------------------------------------

  WARNING 04: minimum elevation drop used for Conduit WS02004404WS02004405
  WARNING 03: negative offset ignored for Link YS02001904YS02001907
  
  ****************
  Analysis Options
  ****************
  Flow Units ............... LPS
  Process Models:
    Rainfall/Runoff ........ YES
    RDII ................... NO
    Snowmelt ............... NO
    Groundwater ............ NO
    Flow Routing ........... YES
    Ponding Allowed ........ NO
    Water Quality .......... NO
  Infiltration Method ...... HORTON
  Flow Routing Method ...... DYNWAVE
  Surcharge Method ......... EXTRAN
  Starting Date ............ 08/28/2015 08:00:00
  Ending Date .............. 08/28/2015 16:00:00
  Antecedent Dry Days ...... 8.0
  Report Time Step ......... 00:01:00
  Wet Time Step ............ 00:01:00
  Dry Time Step ............ 00:01:00
  Routing Time Step ........ 30.00 sec
  Variable Time Step ....... YES
  Maximum Trials ........... 8
  Number of Threads ........ 4
  Head Tolerance ........... 0.001500 m
  
  
  **************************        Volume         Depth
  Runoff Quantity Continuity     hectare-m            mm
  **************************     ---------       -------
  Total Precipitation ......         2.746        82.775
  Evaporation Loss .........         0.000         0.000
  Infiltration Loss ........         0.102         3.071
  Surface Runoff ...........         2.611        78.727
  Final Storage ............         0.033         0.995
  Continuity Error (%) .....        -0.022
  
  
  **************************        Volume        Volume
  Flow Routing Continuity        hectare-m      10^6 ltr
  **************************     ---------     ---------
  Dry Weather Inflow .......         0.025         0.251
  Wet Weather Inflow .......         2.612        26.125
  Groundwater Inflow .......         0.000         0.000
  RDII Inflow ..............         0.000         0.000
  External Inflow ..........         0.083         0.834
  External Outflow .........         1.783        17.835
  Flooding Loss ............         1.007        10.072
  Evaporation Loss .........         0.000         0.000
  Exfiltration Loss ........         0.000         0.000
  Initial Stored Volume ....         0.243         2.431
  Final Stored Volume ......         0.182         1.821
  Continuity Error (%) .....        -0.295
  
  
  *************************
  Highest Continuity Errors
  *************************
  Node YS02001884 (4.85%)
  Node YS02001583 (-4.31%)
  Node WS02006256 (-1.57%)
  
  
  ***************************
  Time-Step Critical Elements
  ***************************
  Link WS02006252WS02006251 (42.95%)
  Link WS02004404WS02004405 (17.86%)
  Link WS02006238WS02006235 (15.06%)
  Link YS02001791YS02001793 (6.50%)
  Link WS02006235WS02006234 (5.12%)
  
  
  ********************************
  Highest Flow Instability Indexes
  ********************************
  Link WS02006113WS02006111 (39)
  Link WS02006238WS02006235 (26)
  Link WS02006252WS02006251 (20)
  Link WS02006111WS02006112 (20)
  Link WS02004404WS02004405 (19)
  
  
  *********************************
  Most Frequent Nonconverging Nodes
  *********************************
  Node CC-1 (16.20%)
  Node CC-2 (16.20%)
  Node JK-1 (16.20%)
  Node JK-2 (16.20%)
  Node WSC (16.20%)
  
  
  *************************
  Routing Time Step Summary
  *************************
  Minimum Time Step           :     0.01 sec
  Average Time Step           :     2.14 sec
  Maximum Time Step           :     7.04 sec
  % of Time in Steady State   :     0.00
  Average Iterations per Step :     3.48
  % of Steps Not Converging   :    16.20
  Time Step Frequencies       :
     30.000 - 13.228 sec      :     0.00 %
     13.228 -  5.833 sec      :    10.99 %
      5.833 -  2.572 sec      :    18.23 %
      2.572 -  1.134 sec      :    23.21 %
      1.134 -  0.500 sec      :    47.56 %
  
  
  ***************************
  Subcatchment Runoff Summary
  ***************************
  
  ------------------------------------------------------------------------------------------------------------------------------
                            Total      Total      Total      Total     Imperv       Perv      Total       Total     Peak  Runoff
                           Precip      Runon       Evap      Infil     Runoff     Runoff     Runoff      Runoff   Runoff   Coeff
  Subcatchment                 mm         mm         mm         mm         mm         mm         mm    10^6 ltr      LPS
  ------------------------------------------------------------------------------------------------------------------------------
  sub60                     82.77       0.00       0.00       1.84      71.64       8.10      79.74        1.05   715.37   0.963
  sub61                     82.77       0.00       0.00       2.67      67.58      11.41      78.99        1.45   993.77   0.954
  sub62                     82.77       0.00       0.00       1.23      74.87       5.40      80.27        2.20  1411.63   0.970
  sub63                     82.77       0.00       0.00       4.92      57.80      19.09      76.89        1.75  1133.71   0.929
  sub64                     82.77       0.00       0.00       2.49      69.16       9.93      79.09        1.90  1159.30   0.955
  sub65                     82.77       0.00       0.00       2.15      70.76       8.61      79.37        2.19  1294.82   0.959
  sub66                     82.77       0.00       0.00       6.12      57.70      17.89      75.59        3.52  1733.33   0.913
  sub67                     82.77       0.00       0.00       1.18      74.91       5.45      80.36        1.49  1072.52   0.971
  sub68                     82.77       0.00       0.00       2.21      70.00       9.38      79.39        2.18  1445.51   0.959
  sub69                     82.77       0.00       0.00       1.98      70.25      10.44      80.69        2.99  1721.99   0.975
  sub70                     82.77       0.00       0.00       6.64      54.47      21.50      75.97        2.19   975.02   0.918
  sub71                     82.77       0.00       0.00       1.26      74.83       5.37      80.20        2.10  1250.64   0.969
  sub72                     82.77       0.00       0.00       1.12      75.58       4.68      80.26        1.10   611.41   0.970
  
  
  ******************
  Node Depth Summary
  ******************
  
  ---------------------------------------------------------------------------------
                                 Average  Maximum  Maximum  Time of Max    Reported
                                   Depth    Depth      HGL   Occurrence   Max Depth
  Node                 Type       Meters   Meters   Meters  days hr:min      Meters
  ---------------------------------------------------------------------------------
  WS02003060           JUNCTION     0.23     0.39     5.32     0  02:22        0.39
  WS02003066           JUNCTION     0.19     0.30     5.85     0  02:22        0.30
  WS02003067           JUNCTION     0.50     0.70     6.02     0  02:21        0.70
  WS02003069           JUNCTION     0.26     0.43     5.02     0  02:23        0.43
  WS02003072           JUNCTION     0.32     0.50     4.87     0  02:23        0.50
  WS02003073           JUNCTION     0.18     0.30     4.36     0  02:24        0.30
  WS02004401           JUNCTION     0.60     0.89     6.89     0  02:20        0.88
  WS02004402           JUNCTION     0.63     0.91     6.87     0  02:20        0.91
  WS02004403           JUNCTION     0.65     0.93     6.86     0  02:20        0.92
  WS02004404           JUNCTION     0.73     1.05     6.90     0  02:19        1.00
  WS02004405           JUNCTION     0.71     0.97     6.82     0  02:20        0.97
  WS02004406           JUNCTION     0.73     0.97     6.80     0  02:20        0.96
  WS02004407           JUNCTION     0.18     0.30     6.61     0  02:20        0.30
  WS02004409           JUNCTION     0.39     0.67     6.44     0  02:20        0.67
  WS02004410           JUNCTION     0.41     0.69     6.41     0  02:20        0.69
  WS02004411           JUNCTION     0.44     0.69     6.37     0  02:21        0.69
  WS02004412           JUNCTION     0.46     0.70     6.34     0  02:21        0.70
  WS02004413           JUNCTION     0.62     0.86     6.33     0  02:21        0.86
  WS02006109           JUNCTION     0.65     1.24     7.86     0  02:26        1.24
  WS02006110           JUNCTION     0.65     1.39     7.98     0  02:26        1.39
  WS02006111           JUNCTION     0.18     0.29     6.99     0  03:15        0.29
  WS02006112           JUNCTION     0.75     1.08     6.97     0  02:20        1.07
  WS02006113           JUNCTION     0.27     0.46     7.35     0  03:14        0.46
  WS02006115           JUNCTION     0.48     0.78     6.92     0  02:20        0.78
  WS02006116           JUNCTION     0.57     0.86     6.90     0  02:19        0.86
  WS02006228           JUNCTION     0.64     1.23     7.88     0  03:05        1.11
  WS02006229           JUNCTION     0.61     1.26     7.96     0  02:25        1.18
  WS02006230           JUNCTION     0.62     1.56     8.30     0  03:05        1.24
  WS02006231           JUNCTION     0.42     1.21     8.33     0  03:05        0.94
  WS02006232           JUNCTION     0.56     1.88     8.91     0  03:05        1.88
  WS02006234           JUNCTION     0.48     1.96     9.12     0  02:03        1.96
  WS02006235           JUNCTION     0.53     2.00     9.16     0  02:03        2.00
  WS02006238           JUNCTION     0.55     2.15     9.29     0  02:03        2.15
  WS02006239           JUNCTION     0.52     2.03     9.24     0  02:03        2.03
  WS02006240           JUNCTION     0.48     2.10     9.39     0  02:03        2.10
  WS02006242           JUNCTION     0.55     1.55     8.82     0  01:50        1.55
  WS02006243           JUNCTION     0.46     1.48     8.90     0  01:50        1.48
  WS02006245           JUNCTION     0.46     1.56     9.04     0  02:03        1.56
  WS02006247           JUNCTION     0.49     1.44     8.94     0  04:19        1.44
  WS02006248           JUNCTION     0.45     1.10     8.69     0  01:59        1.10
  WS02006249           JUNCTION     0.48     1.09     8.69     0  02:00        1.09
  WS02006251           JUNCTION     0.47     1.53     9.20     0  02:02        1.25
  WS02006252           JUNCTION     0.34     1.50     9.74     0  00:00        0.75
  WS02006256           JUNCTION     1.11     2.35     9.28     0  00:00        2.35
  WSF200               JUNCTION     0.17     0.29     5.53     0  02:22        0.29
  YS02001580           JUNCTION     0.14     1.05     9.59     0  01:50        0.92
  YS02001583           JUNCTION     0.17     1.14     9.64     0  01:50        0.82
  YS02001586           JUNCTION     0.27     1.13     9.30     0  01:50        1.13
  YS02001590           JUNCTION     0.38     1.40     9.26     0  02:03        1.38
  YS02001593           JUNCTION     0.30     1.36     9.22     0  02:03        1.30
  YS02001596           JUNCTION     0.41     1.73     9.15     0  02:03        1.68
  YS02001600           JUNCTION     0.49     1.87     9.00     0  01:50        1.87
  YS02001601           JUNCTION     0.70     2.06     8.90     0  01:49        2.06
  YS02001602           JUNCTION     0.60     1.87     8.77     0  01:49        1.87
  YS02001605           JUNCTION     0.56     1.78     8.68     0  01:50        1.78
  YS02001607           JUNCTION     0.53     1.68     8.53     0  02:03        1.68
  YS02001610           JUNCTION     0.58     1.68     8.48     0  01:50        1.68
  YS02001613           JUNCTION     0.54     1.70     8.54     0  01:50        1.67
  YS02001616           JUNCTION     0.47     1.61     8.52     0  01:50        1.61
  YS02001619           JUNCTION     0.44     1.61     8.54     0  01:50        1.61
  YS02001622           JUNCTION     0.43     1.62     8.52     0  02:03        1.58
  YS02001625           JUNCTION     0.69     1.78     8.38     0  01:50        1.78
  YS02001629           JUNCTION     0.56     1.85     8.40     0  01:50        1.85
  YS02001633           JUNCTION     0.64     2.06     8.51     0  01:55        2.03
  YS02001641           JUNCTION     0.62     2.10     8.54     0  02:06        2.10
  YS02001644           JUNCTION     0.61     1.92     8.35     0  01:55        1.92
  YS02001647           JUNCTION     0.39     1.83     8.44     0  01:56        1.79
  YS02001649           JUNCTION     0.44     2.05     8.44     0  01:57        1.99
  YS02001652           JUNCTION     0.32     2.16     8.76     0  01:56        2.16
  YS02001655           JUNCTION     0.25     2.20     9.05     0  01:56        2.10
  YS02001658           JUNCTION     0.18     2.30     9.44     0  01:56        1.90
  YS02001661           JUNCTION     0.20     1.83     9.23     0  01:57        1.25
  YS02001664           JUNCTION     0.08     0.76     8.68     0  02:00        0.75
  YS02001745           JUNCTION     0.10     0.88     8.40     0  02:01        0.88
  YS02001748           JUNCTION     0.17     2.27     9.35     0  01:56        1.30
  YS02001751           JUNCTION     0.21     2.15     9.03     0  01:56        1.69
  YS02001754           JUNCTION     0.28     2.07     8.67     0  01:56        1.71
  YS02001757           JUNCTION     0.46     2.10     8.36     0  02:03        2.04
  YS02001759           JUNCTION     0.40     2.17     8.54     0  02:03        2.06
  YS02001762           JUNCTION     0.39     2.15     8.55     0  02:03        2.02
  YS02001765           JUNCTION     0.36     2.10     8.55     0  02:03        1.97
  YS02001767           JUNCTION     0.36     2.03     8.52     0  01:54        1.94
  YS02001770           JUNCTION     0.37     1.95     8.44     0  01:55        1.95
  YS02001774           JUNCTION     0.44     2.05     8.47     0  02:03        2.05
  YS02001779           JUNCTION     0.26     1.68     8.37     0  01:55        1.68
  YS02001783           JUNCTION     0.31     1.32     7.46     0  02:03        1.32
  YS02001784           JUNCTION     0.31     1.23     7.30     0  02:06        1.23
  YS02001786           JUNCTION     0.26     0.93     6.96     0  01:54        0.87
  YS02001788           JUNCTION     0.19     0.62     6.60     0  02:03        0.62
  YS02001790           JUNCTION     0.22     0.72     6.37     0  02:07        0.72
  YS02001791           JUNCTION     0.14     0.44     5.91     0  02:06        0.43
  YS02001793           JUNCTION     0.07     0.29     5.12     0  02:05        0.28
  YS02001882           JUNCTION     0.39     1.83     8.55     0  02:03        1.83
  YS02001884           JUNCTION     0.48     1.92     8.54     0  02:03        1.78
  YS02001887           JUNCTION     0.56     1.92     8.46     0  02:03        1.86
  YS02001890           JUNCTION     0.59     1.81     8.32     0  01:52        1.81
  YS02001895           JUNCTION     0.35     1.75     8.50     0  02:03        1.75
  YS02001898           JUNCTION     0.36     1.65     8.38     0  02:03        1.65
  YS02001901           JUNCTION     0.47     1.87     8.48     0  02:03        1.87
  YS02001904           JUNCTION     0.45     1.68     8.31     0  01:54        1.68
  YS02001907           JUNCTION     0.78     1.96     8.25     0  01:54        1.96
  YS02001910           JUNCTION     0.58     2.02     8.53     0  01:54        1.98
  YS02001915           JUNCTION     0.40     2.00     8.72     0  01:52        2.00
  YS02001918           JUNCTION     0.24     1.81     8.88     0  01:54        1.81
  YS02001920           JUNCTION     0.32     2.14     9.15     0  01:54        1.74
  YS02001923           JUNCTION     0.19     2.03     9.29     0  01:54        1.51
  YS02001926           JUNCTION     0.21     1.90     9.35     0  01:54        1.45
  YS02001929           JUNCTION     0.13     1.78     9.47     0  01:54        1.14
  YS02006553           JUNCTION     0.78     2.03     8.31     0  02:06        2.01
  YS02006556           JUNCTION     0.75     2.07     8.38     0  02:06        2.00
  YS02006558           JUNCTION     0.79     2.09     8.36     0  02:06        2.04
  YS02006561           JUNCTION     0.19     1.01     7.67     0  02:03        0.91
  YS02163301           JUNCTION     0.59     2.03     8.55     0  02:03        2.03
  YS02163601           JUNCTION     0.68     2.08     8.48     0  01:55        2.08
  YS02164001           JUNCTION     0.61     2.09     8.55     0  02:06        2.09
  CC-1                 OUTFALL      0.00     0.00     0.00     0  00:00        0.00
  CC-2                 OUTFALL      0.00     0.00     0.00     0  00:00        0.00
  JK-1                 OUTFALL      0.00     0.00     0.00     0  00:00        0.00
  JK-2                 OUTFALL      0.00     0.00     0.00     0  00:00        0.00
  WSC                  OUTFALL      0.18     0.30     0.97     0  02:24        0.30
  CC-storage           STORAGE      0.85     1.66     7.16     0  02:35        1.66
  JK-storage           STORAGE      2.22     4.24     5.04     0  02:05        4.19
  
  
  *******************
  Node Inflow Summary
  *******************
  
  -------------------------------------------------------------------------------------------------
                                  Maximum  Maximum                  Lateral       Total        Flow
                                  Lateral    Total  Time of Max      Inflow      Inflow     Balance
                                   Inflow   Inflow   Occurrence      Volume      Volume       Error
  Node                 Type           LPS      LPS  days hr:min    10^6 ltr    10^6 ltr     Percent
  -------------------------------------------------------------------------------------------------
  WS02003060           JUNCTION     16.53   560.36     0  02:22       0.476        5.29       0.042
  WS02003066           JUNCTION      0.00   543.00     0  02:22           0        4.81       0.028
  WS02003067           JUNCTION      0.00   542.78     0  02:21           0        4.82       0.086
  WS02003069           JUNCTION      0.32   560.07     0  02:22     0.00922         5.3       0.073
  WS02003072           JUNCTION      0.00   559.01     0  02:23           0        5.29       0.129
  WS02003073           JUNCTION      1.82   560.23     0  02:24      0.0524        5.34       0.105
  WS02004401           JUNCTION      0.00   558.42     0  02:20           0        4.92       0.210
  WS02004402           JUNCTION      0.00   567.27     0  02:20           0        4.91       0.213
  WS02004403           JUNCTION      0.00   573.49     0  02:20           0         4.9       0.207
  WS02004404           JUNCTION      0.16   581.47     0  02:19     0.00467        4.89       0.152
  WS02004405           JUNCTION      0.04   609.04     0  02:21      0.0011        4.88       0.201
  WS02004406           JUNCTION      0.00   566.23     0  02:20           0        4.87       0.428
  WS02004407           JUNCTION      0.00   551.83     0  02:20           0        4.85       0.026
  WS02004409           JUNCTION      0.00   548.39     0  02:20           0        4.85       0.057
  WS02004410           JUNCTION      0.00   545.93     0  02:20           0        4.85       0.089
  WS02004411           JUNCTION      0.00   544.94     0  02:20           0        4.84       0.114
  WS02004412           JUNCTION      0.00   544.13     0  02:21           0        4.84       0.152
  WS02004413           JUNCTION      0.00   543.85     0  02:21           0        4.83       0.271
  WS02006109           JUNCTION      1.23   567.42     0  03:05      0.0354        4.97       0.185
  WS02006110           JUNCTION      0.00   572.28     0  03:05           0        4.96       0.150
  WS02006111           JUNCTION      0.00   561.16     0  02:05           0        4.95       0.021
  WS02006112           JUNCTION      0.00   544.61     0  03:15           0        4.95       0.358
  WS02006113           JUNCTION      0.00   569.97     0  02:26           0        4.95       0.044
  WS02006115           JUNCTION      0.00   552.32     0  02:26           0        4.93       0.136
  WS02006116           JUNCTION      0.00   547.85     0  02:20           0        4.92       0.120
  WS02006228           JUNCTION      0.00   559.67     0  02:25           0        4.93       0.065
  WS02006229           JUNCTION      0.00   559.25     0  02:25           0        4.94       0.105
  WS02006230           JUNCTION     10.28   615.98     0  04:19       0.296        4.94       0.088
  WS02006231           JUNCTION      0.00   599.77     0  04:19           0        4.65      -0.031
  WS02006232           JUNCTION      0.00   592.16     0  04:19           0        4.66       0.236
  WS02006234           JUNCTION      0.00   571.74     0  04:19           0        4.64      -0.305
  WS02006235           JUNCTION      0.00   561.90     0  03:12           0        4.73       0.316
  WS02006238           JUNCTION      0.00   423.16     0  02:55           0        3.63      -0.159
  WS02006239           JUNCTION      0.00   423.36     0  02:55           0        3.58      -0.145
  WS02006240           JUNCTION      0.00   421.44     0  02:55           0        3.54      -0.060
  WS02006242           JUNCTION      0.00   421.58     0  02:55           0        3.54       0.029
  WS02006243           JUNCTION      0.00   420.69     0  02:55           0        3.53      -0.061
  WS02006245           JUNCTION      0.00   420.03     0  02:55           0        3.54       0.396
  WS02006247           JUNCTION      0.00   419.34     0  03:20           0        3.54       0.020
  WS02006248           JUNCTION      0.00   419.46     0  03:20           0        3.55       0.062
  WS02006249           JUNCTION      0.00   459.02     0  00:00           0        3.78       0.351
  WS02006251           JUNCTION      0.08   409.59     0  02:02     0.00222        3.79       0.008
  WS02006252           JUNCTION      0.00   400.00     0  00:00           0        3.77      -0.279
  WS02006256           JUNCTION      0.00   300.00     0  00:00           0        1.59      -1.542
  WSF200               JUNCTION      0.00   543.19     0  02:22           0        4.81       0.008
  YS02001580           JUNCTION      0.00    92.36     0  01:50           0     0.00409      -1.153
  YS02001583           JUNCTION      0.00   149.05     0  01:50           0      0.0153      -4.135
  YS02001586           JUNCTION    975.02   975.02     0  02:04         2.2        2.21       0.042
  YS02001590           JUNCTION      0.00   336.46     0  02:03           0        1.52      -0.032
  YS02001593           JUNCTION      0.00   327.32     0  02:03           0        1.52       0.000
  YS02001596           JUNCTION      0.00   320.63     0  02:03           0        1.52      -0.006
  YS02001600           JUNCTION      0.00   320.55     0  02:03           0        1.52       0.004
  YS02001601           JUNCTION   1721.99  2039.48     0  02:02        2.99        4.51       0.000
  YS02001602           JUNCTION      0.00   511.12     0  01:49           0        2.49       0.016
  YS02001605           JUNCTION      0.00   511.45     0  01:49           0        2.34       0.027
  YS02001607           JUNCTION      0.00   511.67     0  01:49           0        2.34       0.079
  YS02001610           JUNCTION      0.00   952.42     0  02:05           0        2.83       0.062
  YS02001613           JUNCTION      0.00   616.25     0  02:05           0        2.22       0.069
  YS02001616           JUNCTION      0.00   615.92     0  02:05           0        2.22       0.018
  YS02001619           JUNCTION   1733.33  1733.33     0  02:03        3.53        5.25      -0.004
  YS02001622           JUNCTION      0.00  1062.19     0  02:03           0        4.73      -0.001
  YS02001625           JUNCTION      0.00  1500.58     0  02:05           0        5.07       0.163
  YS02001629           JUNCTION      0.00   930.24     0  01:53           0        3.82       0.014
  YS02001633           JUNCTION   1295.02  1393.40     0  01:53        2.19        5.57       0.061
  YS02001641           JUNCTION      0.00  1393.33     0  01:53           0        5.13       0.051
  YS02001644           JUNCTION   1159.34  1813.51     0  01:53         1.9        7.02       0.034
  YS02001647           JUNCTION      0.00  1813.32     0  01:53           0        6.19       0.004
  YS02001649           JUNCTION      0.00  2088.97     0  01:53           0        7.94      -0.001
  YS02001652           JUNCTION      0.00  1149.34     0  02:01           0        1.75      -0.068
  YS02001655           JUNCTION      0.15  1149.30     0  02:01     0.00443        1.75      -0.054
  YS02001658           JUNCTION      0.00  1149.12     0  02:01           0        1.75      -0.026
  YS02001661           JUNCTION      0.00  1148.88     0  02:01           0        1.75       0.021
  YS02001664           JUNCTION   1133.71  1133.71     0  02:02        1.75        1.75      -0.007
  YS02001745           JUNCTION    715.37   715.37     0  02:02        1.05        1.05       0.144
  YS02001748           JUNCTION      0.04   738.45     0  02:03      0.0013        1.05      -0.189
  YS02001751           JUNCTION      0.01   731.69     0  02:01    0.000317        1.05       0.078
  YS02001754           JUNCTION      0.26   732.24     0  02:01     0.00749        1.06      -0.127
  YS02001757           JUNCTION      0.00  3605.00     0  02:00           0        12.3       0.046
  YS02001759           JUNCTION    993.81  1508.31     0  02:02        1.45        3.26      -0.007
  YS02001762           JUNCTION      0.00   787.10     0  01:57           0        1.81       0.002
  YS02001765           JUNCTION      0.00   786.94     0  01:57           0        1.81       0.008
  YS02001767           JUNCTION      0.54   787.53     0  01:57      0.0154        1.81       0.008
  YS02001770           JUNCTION   1411.78  1411.78     0  02:02         2.2        2.25      -0.004
  YS02001774           JUNCTION      0.00   846.92     0  02:03           0       0.469       0.231
  YS02001779           JUNCTION      0.01   846.19     0  02:02    0.000144       0.423      -0.138
  YS02001783           JUNCTION      0.00  1169.70     0  01:59           0        4.59       0.004
  YS02001784           JUNCTION      1.06  1171.01     0  01:59      0.0305        4.62       0.012
  YS02001786           JUNCTION      0.06  1171.93     0  01:59     0.00162        4.62       0.016
  YS02001788           JUNCTION      0.07  1172.45     0  01:59     0.00204        4.62       0.007
  YS02001790           JUNCTION      0.15  1176.83     0  02:00     0.00446        4.62       0.025
  YS02001791           JUNCTION      0.00  1287.13     0  02:08           0        4.62      -0.031
  YS02001793           JUNCTION      0.00  1244.39     0  02:07           0        4.62       0.004
  YS02001882           JUNCTION      0.00    85.58     0  02:03           0      0.0131       5.976
  YS02001884           JUNCTION      0.00    77.97     0  01:51           0      0.0492       5.097
  YS02001887           JUNCTION   1072.97  1074.29     0  02:01        1.51        1.54       0.285
  YS02001890           JUNCTION      0.00  1074.32     0  02:01           0         1.5       0.322
  YS02001895           JUNCTION      0.00   518.82     0  02:06           0        1.27       0.133
  YS02001898           JUNCTION      0.00   518.36     0  02:04           0        1.27       0.005
  YS02001901           JUNCTION      0.00   517.99     0  02:04           0        1.27       0.253
  YS02001904           JUNCTION      0.00   523.37     0  02:03           0        1.27       0.210
  YS02001907           JUNCTION      0.00  2664.47     0  02:02           0        4.62       0.354
  YS02001910           JUNCTION      0.00  1865.85     0  02:02           0        3.28       0.219
  YS02001915           JUNCTION   1250.66  1865.83     0  02:02         2.1        3.32       0.045
  YS02001918           JUNCTION      0.00   617.75     0  02:03           0        1.25       0.012
  YS02001920           JUNCTION      2.87   625.21     0  02:03      0.0827        1.23       0.094
  YS02001923           JUNCTION      0.04   617.17     0  02:03     0.00109        1.13      -0.047
  YS02001926           JUNCTION      0.05   612.39     0  02:03      0.0015        1.11       0.020
  YS02001929           JUNCTION    611.41   611.41     0  02:03         1.1         1.1      -0.014
  YS02006553           JUNCTION      0.00   799.40     0  02:23           0        2.55       0.469
  YS02006556           JUNCTION      0.00   799.89     0  02:23           0        2.56       0.319
  YS02006558           JUNCTION   1446.39  1446.39     0  02:02        2.21        4.68       0.077
  YS02006561           JUNCTION      0.00  1178.69     0  02:03           0        4.59       0.002
  YS02163301           JUNCTION      0.00   930.92     0  01:53           0        3.82       0.037
  YS02163601           JUNCTION      0.11  1393.57     0  01:53     0.00317        5.13       0.095
  YS02164001           JUNCTION      0.00  1393.70     0  01:53           0        5.12       0.040
  CC-1                 OUTFALL       0.00   683.00     0  00:00           0        4.96       0.000
  CC-2                 OUTFALL       0.00   683.00     0  00:00           0        4.39       0.000
  JK-1                 OUTFALL       0.00  1000.00     0  00:00           0        1.61       0.000
  JK-2                 OUTFALL       0.00  1000.00     0  00:00           0        1.55       0.000
  WSC                  OUTFALL       0.00   559.57     0  02:24           0        5.33       0.000
  CC-storage           STORAGE       0.00  3604.79     0  02:00           0        14.5      -0.223
  JK-storage           STORAGE       0.00  1250.58     0  02:10           0        4.77      -0.359
  
  
  **********************
  Node Surcharge Summary
  **********************
  
  Surcharging occurs when water rises above the top of the highest conduit.
  ---------------------------------------------------------------------
                                               Max. Height   Min. Depth
                                   Hours       Above Crown    Below Rim
  Node                 Type      Surcharged         Meters       Meters
  ---------------------------------------------------------------------
  WS02004404           JUNCTION        0.02          0.053        2.727
  WS02006109           JUNCTION        2.06          0.421        1.399
  WS02006110           JUNCTION        0.76          0.483        1.367
  WS02006112           JUNCTION        0.95          0.083        1.597
  WS02006228           JUNCTION        2.06          0.403        1.797
  WS02006229           JUNCTION        2.07          0.465        1.985
  WS02006230           JUNCTION        0.78          0.476        1.094
  WS02006231           JUNCTION        0.91          0.498        1.032
  WS02006232           JUNCTION        2.11          1.176        0.304
  WS02006234           JUNCTION        1.41          1.240        0.000
  WS02006235           JUNCTION        2.04          1.290        0.000
  WS02006238           JUNCTION        2.08          1.430        0.000
  WS02006239           JUNCTION        2.04          1.290        0.000
  WS02006240           JUNCTION        2.05          1.390        0.000
  WS02006242           JUNCTION        2.10          0.820        0.000
  WS02006243           JUNCTION        1.90          0.770        0.000
  WS02006245           JUNCTION        1.87          0.850        0.000
  WS02006247           JUNCTION        1.87          0.730        0.030
  WS02006248           JUNCTION        1.85          0.380        0.000
  WS02006249           JUNCTION        1.85          0.390        0.000
  WS02006251           JUNCTION        0.94          0.501        0.679
  WS02006252           JUNCTION        2.11          1.100        0.000
  WS02006256           JUNCTION        6.62          2.050        0.000
  YS02001580           JUNCTION        0.80          0.450        0.000
  YS02001583           JUNCTION        0.80          0.500        0.000
  YS02001586           JUNCTION        0.92          0.510        0.000
  YS02001590           JUNCTION        1.00          0.750        0.000
  YS02001593           JUNCTION        1.00          0.741        0.099
  YS02001596           JUNCTION        1.13          1.000        0.070
  YS02001600           JUNCTION        1.29          1.190        0.000
  YS02001601           JUNCTION        1.59          1.440        0.000
  YS02001602           JUNCTION        1.50          1.270        0.000
  YS02001605           JUNCTION        1.45          1.180        0.000
  YS02001607           JUNCTION        0.98          0.680        0.000
  YS02001610           JUNCTION        1.01          0.680        0.000
  YS02001613           JUNCTION        0.98          0.700        0.000
  YS02001616           JUNCTION        0.93          0.610        0.000
  YS02001619           JUNCTION        0.92          0.610        0.000
  YS02001622           JUNCTION        0.91          0.620        0.000
  YS02001625           JUNCTION        1.11          0.780        0.000
  YS02001629           JUNCTION        0.86          0.470        0.000
  YS02001633           JUNCTION        1.13          1.036        0.024
  YS02001641           JUNCTION        1.07          1.100        0.000
  YS02001644           JUNCTION        1.04          0.920        0.000
  YS02001647           JUNCTION        0.80          0.826        0.074
  YS02001649           JUNCTION        0.93          1.050        0.000
  YS02001652           JUNCTION        0.71          1.130        0.000
  YS02001655           JUNCTION        0.52          1.200        0.000
  YS02001658           JUNCTION        0.30          1.300        0.000
  YS02001661           JUNCTION        0.10          0.760        0.630
  YS02001748           JUNCTION        0.23          1.190        0.000
  YS02001751           JUNCTION        0.38          1.154        0.046
  YS02001754           JUNCTION        0.60          1.015        0.135
  YS02001757           JUNCTION        1.00          1.103        0.107
  YS02001759           JUNCTION        0.89          1.174        0.036
  YS02001762           JUNCTION        0.86          1.150        0.000
  YS02001765           JUNCTION        0.81          1.100        0.000
  YS02001767           JUNCTION        0.77          1.030        0.000
  YS02001770           JUNCTION        0.74          0.920        0.000
  YS02001774           JUNCTION        0.84          1.050        0.000
  YS02001779           JUNCTION        0.59          0.680        0.000
  YS02001783           JUNCTION        0.67          0.522        1.078
  YS02001784           JUNCTION        0.65          0.429        1.061
  YS02001786           JUNCTION        0.53          0.130        1.300
  YS02001882           JUNCTION        0.61          0.830        0.000
  YS02001884           JUNCTION        0.62          0.861        0.009
  YS02001887           JUNCTION        0.66          0.869        0.081
  YS02001890           JUNCTION        0.68          0.760        0.000
  YS02001895           JUNCTION        0.60          0.750        0.000
  YS02001898           JUNCTION        0.59          0.618        0.122
  YS02001901           JUNCTION        0.65          0.870        0.000
  YS02001904           JUNCTION        0.64          0.681        0.169
  YS02001907           JUNCTION        0.90          0.950        0.000
  YS02001910           JUNCTION        0.71          1.021        0.079
  YS02001915           JUNCTION        0.61          1.000        0.000
  YS02001918           JUNCTION        0.52          0.810        0.000
  YS02001920           JUNCTION        0.53          1.140        0.000
  YS02001923           JUNCTION        0.21          0.820        0.000
  YS02001926           JUNCTION        0.23          0.900        0.000
  YS02001929           JUNCTION        0.08          0.780        0.000
  YS02006553           JUNCTION        0.93          1.030        0.160
  YS02006556           JUNCTION        0.81          1.028        0.322
  YS02006558           JUNCTION        0.79          0.993        0.407
  YS02006561           JUNCTION        0.48          0.205        0.945
  YS02163301           JUNCTION        1.11          1.030        0.000
  YS02163601           JUNCTION        1.17          1.080        0.000
  YS02164001           JUNCTION        1.07          1.093        0.007
  
  
  *********************
  Node Flooding Summary
  *********************
  
  Flooding refers to all water that overflows a node, whether it ponds or not.
  --------------------------------------------------------------------------
                                                             Total   Maximum
                                 Maximum   Time of Max       Flood    Ponded
                        Hours       Rate    Occurrence      Volume     Depth
  Node                 Flooded       LPS   days hr:min    10^6 ltr    Meters
  --------------------------------------------------------------------------
  WS02006234              0.01      3.09      0  03:05       0.000     0.000
  WS02006235              0.01      4.91      0  02:03       0.000     0.000
  WS02006238              0.01      4.78      0  02:03       0.000     0.000
  WS02006239              0.01      1.67      0  02:03       0.000     0.000
  WS02006240              0.01      1.95      0  02:03       0.000     0.000
  WS02006242              0.01     32.70      0  01:50       0.000     0.000
  WS02006243              0.01     45.18      0  01:50       0.000     0.000
  WS02006245              0.01      0.66      0  02:03       0.000     0.000
  WS02006248              0.01     26.80      0  04:19       0.001     0.000
  WS02006249              0.91    123.96      0  02:02       0.224     0.000
  WS02006252              0.01    245.63      0  00:00       0.000     0.000
  WS02006256              1.47    293.19      0  00:00       0.492     0.000
  YS02001580              0.01     79.99      0  01:50       0.000     0.000
  YS02001583              0.01     59.51      0  01:50       0.000     0.000
  YS02001586              0.65    657.95      0  02:04       0.677     0.000
  YS02001590              0.01      8.14      0  02:03       0.000     0.000
  YS02001600              0.01     17.16      0  02:03       0.000     0.000
  YS02001601              0.84   1641.60      0  02:03       2.020     0.000
  YS02001602              0.71     62.04      0  02:29       0.145     0.000
  YS02001605              0.01      3.45      0  01:50       0.000     0.000
  YS02001607              0.01      0.50      0  02:03       0.000     0.000
  YS02001610              0.63    952.01      0  02:05       1.111     0.000
  YS02001613              0.01      7.31      0  01:50       0.000     0.000
  YS02001616              0.02     24.60      0  01:50       0.000     0.000
  YS02001619              0.09     81.13      0  02:03       0.015     0.000
  YS02001622              0.01     12.46      0  02:03       0.000     0.000
  YS02001625              0.59   1500.51      0  02:05       1.679     0.000
  YS02001629              0.21    251.38      0  02:01       0.111     0.000
  YS02001641              0.01      0.55      0  02:06       0.000     0.000
  YS02001644              0.28   1582.00      0  02:02       0.828     0.000
  YS02001649              0.01      2.35      0  01:57       0.000     0.000
  YS02001652              0.01     12.35      0  01:56       0.000     0.000
  YS02001655              0.01     89.47      0  01:56       0.000     0.000
  YS02001658              0.01    327.72      0  01:56       0.000     0.000
  YS02001748              0.01    126.04      0  01:56       0.000     0.000
  YS02001762              0.01     18.89      0  02:03       0.000     0.000
  YS02001765              0.01     19.76      0  02:03       0.000     0.000
  YS02001767              0.01    138.85      0  01:54       0.000     0.000
  YS02001770              0.06     83.75      0  02:01       0.010     0.000
  YS02001774              0.01      0.99      0  02:03       0.000     0.000
  YS02001779              0.25    846.04      0  02:03       0.404     0.000
  YS02001882              0.01     16.16      0  02:03       0.000     0.000
  YS02001890              0.26    557.93      0  02:01       0.226     0.000
  YS02001895              0.01      0.27      0  02:03       0.000     0.000
  YS02001901              0.01      1.09      0  02:03       0.000     0.000
  YS02001907              0.46   2664.25      0  02:02       2.122     0.000
  YS02001915              0.01     93.28      0  01:52       0.000     0.000
  YS02001918              0.01     65.23      0  01:54       0.001     0.000
  YS02001920              0.01     13.20      0  01:54       0.000     0.000
  YS02001923              0.01    275.04      0  01:54       0.000     0.000
  YS02001926              0.01    205.23      0  01:54       0.000     0.000
  YS02001929              0.01    343.69      0  01:54       0.001     0.000
  YS02163301              0.01      0.67      0  02:03       0.000     0.000
  YS02163601              0.01      9.67      0  02:03       0.000     0.000
  
  
  **********************
  Storage Volume Summary
  **********************
  
  ------------------------------------------------------------------------------------------------
                         Average    Avg   Evap  Exfil     Maximum    Max    Time of Max    Maximum
                          Volume   Pcnt   Pcnt   Pcnt      Volume   Pcnt     Occurrence    Outflow
  Storage Unit           1000 m³   Full   Loss   Loss     1000 m³   Full    days hr:min        LPS
  ------------------------------------------------------------------------------------------------
  CC-storage               2.367   36.9    0.0    0.0       4.625   72.1       0  02:35    1783.53
  JK-storage               0.111   38.2    0.0    0.0       0.213   73.2       0  02:05    2300.00
  
  
  ***********************
  Outfall Loading Summary
  ***********************
  
  -----------------------------------------------------------
                         Flow       Avg       Max       Total
                         Freq      Flow      Flow      Volume
  Outfall Node           Pcnt       LPS       LPS    10^6 ltr
  -----------------------------------------------------------
  CC-1                  40.12    683.00    683.00       4.959
  CC-2                  32.17    683.00    683.00       4.385
  JK-1                   9.17   1000.00   1000.00       1.607
  JK-2                   9.77   1000.00   1000.00       1.552
  WSC                   99.96    253.56    559.57       5.332
  -----------------------------------------------------------
  System                38.24   3619.56   3888.73      17.834
  
  
  ********************
  Link Flow Summary
  ********************
  
  -----------------------------------------------------------------------------
                                 Maximum  Time of Max   Maximum    Max/    Max/
                                  |Flow|   Occurrence   |Veloc|    Full    Full
  Link                 Type          LPS  days hr:min     m/sec    Flow   Depth
  -----------------------------------------------------------------------------
  1                    CONDUIT    559.57     0  02:24      2.83    0.19    0.30
  WS02003060WS02003069 CONDUIT    559.75     0  02:22      1.65    0.22    0.34
  WS02003066WSF200     CONDUIT    543.19     0  02:22      2.86    0.09    0.22
  WS02003067WS02003066 CONDUIT    543.00     0  02:22      1.21    0.17    0.42
  WS02003069WS02003072 CONDUIT    559.01     0  02:23      1.37    0.27    0.39
  WS02003072WS02003073 CONDUIT    558.41     0  02:24      1.44    1.21    0.38
  WS02004401WS02004402 CONDUIT    567.27     0  02:20      0.98    0.68    0.89
  WS02004402WS02004403 CONDUIT    573.49     0  02:20      0.97    0.82    0.91
  WS02004403WS02004404 CONDUIT    581.30     0  02:19      0.92    0.42    0.96
  WS02004404WS02004405 CONDUIT    609.00     0  02:21      1.08    5.97    0.98
  WS02004405WS02004406 CONDUIT    566.23     0  02:20      0.99    1.12    0.97
  WS02004406WS02004407 CONDUIT    551.83     0  02:20      1.06    0.25    0.63
  WS02004407WS02004409 CONDUIT    548.39     0  02:20      1.46    0.19    0.49
  WS02004409WS02004410 CONDUIT    545.93     0  02:20      0.96    0.71    0.68
  WS02004410WS02004411 CONDUIT    544.94     0  02:20      0.94    0.74    0.69
  WS02004411WS02004412 CONDUIT    544.13     0  02:21      0.93    0.77    0.70
  WS02004412WS02004413 CONDUIT    543.85     0  02:21      0.83    0.36    0.78
  WS02004413WS02003067 CONDUIT    542.78     0  02:21      1.12    0.23    0.59
  WS02006109WS02006110 CONDUIT    572.28     0  03:05      1.14    1.10    1.00
  WS02006110WS02006113 CONDUIT    569.97     0  02:26      1.38    0.52    0.79
  WS02006111WS02006112 CONDUIT    544.61     0  03:15      1.81    0.26    0.67
  WS02006112WS02006115 CONDUIT    552.32     0  02:26      0.79    0.33    0.88
  WS02006113WS02006111 CONDUIT    561.16     0  02:05      2.47    0.67    0.46
  WS02006115WS02006116 CONDUIT    547.85     0  02:20      0.97    0.70    0.79
  WS02006116WS02004401 CONDUIT    558.42     0  02:20      0.98    0.77    0.87
  WS02006228WS02006109 CONDUIT    566.19     0  03:05      1.13    2.47    1.00
  WS02006229WS02006228 CONDUIT    559.67     0  02:25      1.14    1.85    1.00
  WS02006230WS02006229 CONDUIT    559.25     0  02:25      1.45   12.45    1.00
  WS02006231WS02006230 CONDUIT    605.70     0  04:19      1.58    9.19    1.00
  WS02006232WS02006231 CONDUIT    599.77     0  04:19      1.56    1.26    1.00
  WS02006234WS02006232 CONDUIT    592.16     0  04:19      1.54    1.20    1.00
  WS02006235WS02006234 CONDUIT    571.74     0  04:19      1.49    6.03    1.00
  WS02006238WS02006235 CONDUIT    423.77     0  02:55      1.46    0.95    1.00
  WS02006239WS02006238 CONDUIT    423.16     0  02:55      1.10    1.35    1.00
  WS02006240WS02006239 CONDUIT    423.36     0  02:55      1.24    1.33    1.00
  WS02006242WS02006240 CONDUIT    421.44     0  02:55      1.13    1.67    1.00
  WS02006243WS02006242 CONDUIT    421.58     0  02:55      1.40    0.90    1.00
  WS02006245WS02006243 CONDUIT    420.69     0  02:55      1.45    1.24    1.00
  WS02006247WS02006245 CONDUIT    420.03     0  02:55      1.43    3.33    1.00
  WS02006248WS02006247 CONDUIT    419.34     0  03:20      1.44    0.91    1.00
  WS02006249WS02006248 CONDUIT    419.46     0  03:20      1.36    2.30    1.00
  WS02006251WS02006249 CONDUIT    459.02     0  00:00      1.99    1.32    1.00
  WS02006252WS02006251 CONDUIT    409.51     0  02:02     24.61    1.50    1.00
  WS02006256WS02006235 CONDUIT    288.91     0  00:00      4.23    3.06    1.00
  WSF200WS02003060     CONDUIT    543.83     0  02:22      2.07    0.12    0.28
  YS02001580YS02001583 CONDUIT     92.36     0  01:50      0.61    0.36    1.00
  YS02001583YS02001586 CONDUIT    149.05     0  01:50      0.62    0.23    1.00
  YS02001586YS02001590 CONDUIT    336.46     0  02:03      1.25    0.59    1.00
  YS02001590YS02001593 CONDUIT    327.32     0  02:03      1.16    2.05    1.00
  YS02001593YS02001596 CONDUIT    320.63     0  02:03      1.76    0.51    1.00
  YS02001596YS02001600 CONDUIT    320.55     0  02:03      1.26    0.62    1.00
  YS02001600YS02001601 CONDUIT    318.60     0  02:06      1.13    0.55    1.00
  YS02001601YS02001602 CONDUIT    511.12     0  01:49      1.81    1.85    1.00
  YS02001602YS02001605 CONDUIT    511.45     0  01:49      1.81   10.82    1.00
  YS02001605YS02001607 CONDUIT    511.67     0  01:49      1.81    2.81    1.00
  YS02001607YS02001610 CONDUIT    513.40     0  01:49      0.65    0.49    1.00
  YS02001610YS02001613 CONDUIT    616.04     0  02:05      0.78    0.71    1.00
  YS02001613YS02001616 CONDUIT    616.25     0  02:05      0.78    0.53    1.00
  YS02001616YS02001619 CONDUIT    615.92     0  02:05      0.78    1.07    1.00
  YS02001619YS02001622 CONDUIT   1062.19     0  02:03      1.35    1.57    1.00
  YS02001622YS02001625 CONDUIT   1053.33     0  02:05      1.34    0.56    1.00
  YS02001625YS02001629 CONDUIT    930.24     0  01:53      1.18    0.44    1.00
  YS02001629YS02163301 CONDUIT    930.92     0  01:53      1.19    1.15    1.00
  YS02001633YS02163601 CONDUIT   1393.46     0  01:53      1.77    1.46    1.00
  YS02001641YS02001644 CONDUIT   1393.42     0  01:53      1.77    4.50    1.00
  YS02001644YS02001647 CONDUIT   1813.32     0  01:53      2.31    1.07    1.00
  YS02001647YS02001649 CONDUIT   1824.32     0  01:53      2.35    0.96    1.00
  YS02001649YS02001757 CONDUIT   2072.62     0  01:53      2.65    1.26    1.00
  YS02001652YS02001649 CONDUIT   1149.35     0  02:01      1.46    0.57    1.00
  YS02001655YS02001652 CONDUIT   1149.34     0  02:01      1.46    0.56    1.00
  YS02001658YS02001655 CONDUIT   1149.15     0  02:01      1.90    0.49    1.00
  YS02001661YS02001658 CONDUIT   1149.12     0  02:01      2.33    0.45    1.00
  YS02001664YS02001661 CONDUIT   1148.88     0  02:01      2.33    0.36    0.88
  YS02001745YS02001748 CONDUIT    738.40     0  02:03      2.20    0.28    0.94
  YS02001748YS02001751 CONDUIT    731.68     0  02:01      1.71    0.37    1.00
  YS02001751YS02001754 CONDUIT    731.98     0  02:01      1.45    0.35    1.00
  YS02001754YS02001757 CONDUIT    732.08     0  02:01      0.93    0.29    1.00
  YS02001757CaochengTiaoxuchi CONDUIT   3604.79     0  02:00      4.79    1.56    1.00
  YS02001759YS02001757 CONDUIT   1508.20     0  02:02      1.92    1.07    1.00
  YS02001762YS02001759 CONDUIT    787.34     0  01:57      1.00    0.91    1.00
  YS02001765YS02001762 CONDUIT    787.10     0  01:57      1.00    0.74    1.00
  YS02001767YS02001765 CONDUIT    786.94     0  01:57      1.00    0.99    1.00
  YS02001770YS02001767 CONDUIT    786.99     0  01:57      1.00    3.12    1.00
  YS02001774YS02001770 CONDUIT    846.92     0  02:03      1.08    0.54    1.00
  YS02001779YS02001774 CONDUIT    846.19     0  02:02      1.08    0.43    1.00
  YS02001783YS02001784 CONDUIT   1169.95     0  01:59      2.33    1.61    1.00
  YS02001784YS02001785 CONDUIT   1171.87     0  01:59      2.33    2.73    1.00
  YS02001786YS02001788 CONDUIT   1172.38     0  01:59      2.49    2.26    0.89
  YS02001788YS02001790 CONDUIT   1176.68     0  02:00      2.73    0.87    0.84
  YS02001790YS02001791 CONDUIT   1287.13     0  02:08      3.43    1.40    0.70
  YS02001791YS02001793 CONDUIT   1244.39     0  02:07      6.77    0.53    0.44
  YS02001793JiankangQianchi CONDUIT   1250.58     0  02:10      2.48    0.10    0.64
  YS02001882YS02001884 CONDUIT     85.58     0  02:03      0.15    0.10    1.00
  YS02001884YS02001887 CONDUIT     77.97     0  01:51      0.11    0.10    1.00
  YS02001887YS02001890 CONDUIT   1074.32     0  02:01      1.37    1.84    1.00
  YS02001890YS02001895 CONDUIT    518.82     0  02:06      0.66    0.24    1.00
  YS02001895YS02001898 CONDUIT    518.36     0  02:04      0.66    0.90    1.00
  YS02001898YS02001901 CONDUIT    517.99     0  02:04      0.66    0.33    1.00
  YS02001901YS02001904 CONDUIT    523.37     0  02:03      0.67    0.81    1.00
  YS02001904YS02001907 CONDUIT    535.28     0  02:03      0.68    0.19    1.00
  YS02001907YS02006553 CONDUIT    799.40     0  02:23      0.89    0.94    1.00
  YS02001910YS02001907 CONDUIT   1866.05     0  02:02      2.38    1.05    1.00
  YS02001915YS02001910 CONDUIT   1865.85     0  02:02      2.38    0.93    1.00
  YS02001918YS02001915 CONDUIT    617.31     0  02:03      0.79    0.34    1.00
  YS02001920YS02001918 CONDUIT    617.75     0  02:03      0.79    0.60    1.00
  YS02001923YS02001920 CONDUIT    622.34     0  02:03      0.79    0.28    1.00
  YS02001926YS02001923 CONDUIT    617.13     0  02:03      0.95    0.88    1.00
  YS02001929YS02001926 CONDUIT    612.34     0  02:03      1.11    0.29    1.00
  YS02006553YS02006556 CONDUIT    799.89     0  02:23      1.02    0.68    1.00
  YS02006556YS02006558 CONDUIT    799.91     0  02:23      1.02    0.63    1.00
  YS02006558YS02006561 CONDUIT   1178.69     0  02:03      4.17    2.61    1.00
  YS02006561YS02001783 CONDUIT   1169.70     0  01:59      2.33    0.61    1.00
  YS02163301YS02001633 CONDUIT    930.81     0  01:53      1.19    0.88    1.00
  YS02163601YS02164001 CONDUIT   1393.70     0  01:53      1.77    1.23    1.00
  YS02164001YS02001641 CONDUIT   1393.33     0  01:53      1.77    1.90    1.00
  CC-R1                PUMP       683.00     0  00:00              1.00
  CC-R2                PUMP       683.00     0  00:00              1.00
  CC-S1                PUMP       200.00     0  00:00              1.00
  CC-S2                PUMP       200.00     0  00:00              1.00
  JK-R1                PUMP      1000.00     0  00:00              1.00
  JK-R2                PUMP      1000.00     0  00:00              1.00
  JK-S                 PUMP       300.00     0  00:00              1.00
  
  
  ***************************
  Flow Classification Summary
  ***************************
  
  -------------------------------------------------------------------------------------
                      Adjusted    ---------- Fraction of Time in Flow Class ---------- 
                       /Actual         Up    Down  Sub   Sup   Up    Down  Norm  Inlet 
  Conduit               Length    Dry  Dry   Dry   Crit  Crit  Crit  Crit  Ltd   Ctrl  
  -------------------------------------------------------------------------------------
  1                       1.00   0.00  0.00  0.00  0.00  1.00  0.00  0.00  0.40  0.00
  WS02003060WS02003069    1.00   0.00  0.00  0.00  0.98  0.02  0.00  0.00  0.68  0.00
  WS02003066WSF200        1.00   0.13  0.00  0.00  0.00  0.87  0.00  0.00  0.75  0.00
  WS02003067WS02003066    1.00   0.10  0.02  0.00  0.88  0.00  0.00  0.00  0.00  0.00
  WS02003069WS02003072    1.00   0.00  0.00  0.00  0.99  0.01  0.00  0.00  0.72  0.00
  WS02003072WS02003073    1.00   0.00  0.00  0.00  0.00  0.00  0.00  1.00  0.00  0.00
  WS02004401WS02004402    1.00   0.02  0.00  0.00  0.98  0.00  0.00  0.00  0.00  0.00
  WS02004402WS02004403    1.00   0.02  0.00  0.00  0.97  0.00  0.00  0.00  0.00  0.00
  WS02004403WS02004404    1.00   0.00  0.03  0.00  0.97  0.00  0.00  0.00  0.00  0.00
  WS02004404WS02004405    1.00   0.00  0.00  0.00  1.00  0.00  0.00  0.00  0.01  0.00
  WS02004405WS02004406    1.00   0.00  0.00  0.00  1.00  0.00  0.00  0.00  0.00  0.00
  WS02004406WS02004407    1.00   0.00  0.05  0.00  0.95  0.00  0.00  0.00  0.00  0.00
  WS02004407WS02004409    1.00   0.05  0.00  0.00  0.94  0.01  0.00  0.00  0.94  0.00
  WS02004409WS02004410    1.00   0.05  0.00  0.00  0.95  0.00  0.00  0.00  0.03  0.00
  WS02004410WS02004411    1.00   0.05  0.00  0.00  0.95  0.00  0.00  0.00  0.01  0.00
  WS02004411WS02004412    1.00   0.05  0.00  0.00  0.95  0.00  0.00  0.00  0.00  0.00
  WS02004412WS02004413    1.00   0.05  0.00  0.00  0.94  0.00  0.00  0.00  0.01  0.00
  WS02004413WS02003067    1.00   0.06  0.04  0.00  0.00  0.00  0.90  0.00  0.00  0.00
  WS02006109WS02006110    1.00   0.00  0.01  0.00  0.98  0.00  0.01  0.00  0.00  0.00
  WS02006110WS02006113    1.00   0.01  0.01  0.00  0.98  0.00  0.00  0.00  0.00  0.00
  WS02006111WS02006112    1.00   0.02  0.00  0.00  0.98  0.00  0.00  0.00  0.98  0.00
  WS02006112WS02006115    1.00   0.02  0.00  0.00  0.97  0.00  0.00  0.00  0.00  0.00
  WS02006113WS02006111    1.00   0.02  0.00  0.00  0.00  0.98  0.00  0.00  0.12  0.00
  WS02006115WS02006116    1.00   0.02  0.00  0.00  0.97  0.00  0.00  0.01  0.00  0.00
  WS02006116WS02004401    1.00   0.02  0.00  0.00  0.98  0.00  0.00  0.00  0.00  0.00
  WS02006228WS02006109    1.00   0.00  0.00  0.00  1.00  0.00  0.00  0.00  0.00  0.00
  WS02006229WS02006228    1.00   0.00  0.00  0.00  0.99  0.00  0.00  0.01  0.00  0.00
  WS02006230WS02006229    1.00   0.00  0.00  0.00  0.99  0.00  0.00  0.01  0.02  0.00
  WS02006231WS02006230    1.00   0.00  0.00  0.00  0.28  0.00  0.72  0.00  0.00  0.00
  WS02006232WS02006231    1.00   0.00  0.00  0.00  0.98  0.00  0.01  0.00  0.00  0.00
  WS02006234WS02006232    1.00   0.00  0.00  0.00  1.00  0.00  0.00  0.00  0.06  0.00
  WS02006235WS02006234    1.00   0.00  0.00  0.00  0.90  0.00  0.10  0.00  0.00  0.00
  WS02006238WS02006235    1.00   0.00  0.00  0.00  1.00  0.00  0.00  0.00  0.00  0.00
  WS02006239WS02006238    1.00   0.00  0.00  0.00  1.00  0.00  0.00  0.00  0.19  0.00
  WS02006240WS02006239    1.00   0.00  0.00  0.00  0.67  0.00  0.00  0.33  0.04  0.00
  WS02006242WS02006240    1.00   0.00  0.00  0.00  0.99  0.00  0.01  0.00  0.00  0.00
  WS02006243WS02006242    1.00   0.00  0.00  0.00  0.99  0.00  0.00  0.01  0.56  0.00
  WS02006245WS02006243    1.00   0.00  0.00  0.00  0.77  0.00  0.00  0.22  0.00  0.00
  WS02006247WS02006245    1.00   0.00  0.00  0.00  0.97  0.00  0.00  0.03  0.00  0.00
  WS02006248WS02006247    1.00   0.00  0.00  0.00  0.98  0.00  0.00  0.02  0.46  0.00
  WS02006249WS02006248    1.00   0.00  0.00  0.00  0.45  0.00  0.55  0.00  0.00  0.00
  WS02006251WS02006249    1.00   0.00  0.00  0.00  0.99  0.01  0.00  0.00  0.55  0.00
  WS02006252WS02006251    1.00   0.00  0.38  0.00  0.12  0.00  0.51  0.00  0.00  0.00
  WS02006256WS02006235    1.00   0.00  0.00  0.00  0.98  0.02  0.00  0.00  0.00  0.00
  WSF200WS02003060        1.00   0.00  0.13  0.00  0.36  0.51  0.00  0.00  0.53  0.00
  YS02001580YS02001583    1.00   0.23  0.56  0.00  0.22  0.00  0.00  0.00  0.65  0.00
  YS02001583YS02001586    1.00   0.41  0.32  0.00  0.27  0.00  0.00  0.00  0.65  0.00
  YS02001586YS02001590    1.00   0.13  0.00  0.00  0.44  0.04  0.00  0.39  0.35  0.00
  YS02001590YS02001593    1.00   0.13  0.01  0.00  0.14  0.00  0.73  0.00  0.00  0.00
  YS02001593YS02001596    1.00   0.13  0.00  0.00  0.16  0.01  0.00  0.70  0.02  0.00
  YS02001596YS02001600    1.00   0.13  0.00  0.00  0.21  0.01  0.00  0.64  0.04  0.00
  YS02001600YS02001601    1.00   0.13  0.01  0.00  0.86  0.00  0.00  0.00  0.59  0.00
  YS02001601YS02001602    1.00   0.13  0.01  0.00  0.87  0.00  0.00  0.00  0.00  0.00
  YS02001602YS02001605    1.00   0.13  0.00  0.00  0.87  0.00  0.00  0.00  0.00  0.00
  YS02001605YS02001607    1.00   0.14  0.00  0.00  0.86  0.00  0.00  0.00  0.00  0.00
  YS02001607YS02001610    1.00   0.13  0.01  0.00  0.86  0.00  0.00  0.00  0.01  0.00
  YS02001610YS02001613    1.00   0.13  0.00  0.00  0.87  0.00  0.00  0.00  0.00  0.00
  YS02001613YS02001616    1.00   0.13  0.00  0.00  0.87  0.00  0.00  0.00  0.00  0.00
  YS02001616YS02001619    1.00   0.13  0.00  0.00  0.87  0.00  0.00  0.00  0.00  0.00
  YS02001619YS02001622    1.00   0.13  0.00  0.00  0.87  0.00  0.00  0.00  0.28  0.00
  YS02001622YS02001625    1.00   0.13  0.00  0.00  0.87  0.00  0.00  0.00  0.04  0.00
  YS02001625YS02001629    1.00   0.13  0.04  0.00  0.18  0.00  0.65  0.00  0.00  0.00
  YS02001629YS02163301    1.00   0.15  0.01  0.00  0.84  0.00  0.00  0.00  0.00  0.00
  YS02001633YS02163601    1.00   0.00  0.01  0.00  0.99  0.00  0.00  0.00  0.15  0.00
  YS02001641YS02001644    1.00   0.00  0.01  0.00  0.99  0.00  0.00  0.00  0.00  0.00
  YS02001644YS02001647    1.00   0.00  0.17  0.00  0.83  0.00  0.00  0.00  0.00  0.00
  YS02001647YS02001649    1.00   0.00  0.16  0.00  0.57  0.27  0.00  0.00  0.56  0.00
  YS02001649YS02001757    1.00   0.00  0.00  0.00  0.81  0.19  0.00  0.00  0.40  0.00
  YS02001652YS02001649    1.00   0.00  0.00  0.00  0.97  0.03  0.00  0.00  0.72  0.00
  YS02001655YS02001652    1.00   0.00  0.00  0.00  0.21  0.01  0.00  0.79  0.05  0.00
  YS02001658YS02001655    1.00   0.00  0.14  0.00  0.68  0.18  0.00  0.00  0.66  0.00
  YS02001661YS02001658    1.00   0.14  0.00  0.00  0.52  0.34  0.00  0.00  0.68  0.00
  YS02001664YS02001661    1.00   0.13  0.00  0.00  0.76  0.12  0.00  0.00  0.84  0.00
  YS02001745YS02001748    1.00   0.00  0.00  0.00  0.12  0.01  0.00  0.88  0.05  0.00
  YS02001748YS02001751    1.00   0.00  0.00  0.00  0.84  0.16  0.00  0.00  0.76  0.00
  YS02001751YS02001754    1.00   0.00  0.00  0.00  0.19  0.00  0.00  0.81  0.03  0.00
  YS02001754YS02001757    1.00   0.00  0.00  0.00  1.00  0.00  0.00  0.00  0.80  0.00
  YS02001757CaochengTiaoxuchi    1.00   0.00  0.00  0.00  0.95  0.05  0.00  0.00  0.67  0.00
  YS02001759YS02001757    1.00   0.00  0.00  0.00  0.99  0.01  0.00  0.00  0.53  0.00
  YS02001762YS02001759    1.00   0.00  0.00  0.00  1.00  0.00  0.00  0.00  0.04  0.00
  YS02001765YS02001762    1.00   0.00  0.00  0.00  1.00  0.00  0.00  0.00  0.66  0.00
  YS02001767YS02001765    1.00   0.00  0.00  0.00  1.00  0.00  0.00  0.00  0.01  0.00
  YS02001770YS02001767    1.00   0.00  0.00  0.00  1.00  0.00  0.00  0.00  0.00  0.00
  YS02001774YS02001770    1.00   0.00  0.13  0.00  0.70  0.00  0.16  0.00  0.03  0.00
  YS02001779YS02001774    1.00   0.00  0.00  0.00  1.00  0.00  0.00  0.00  0.75  0.00
  YS02001783YS02001784    1.00   0.00  0.17  0.00  0.83  0.00  0.00  0.00  0.55  0.00
  YS02001784YS02001785    1.00   0.00  0.00  0.00  1.00  0.00  0.00  0.00  0.16  0.00
  YS02001786YS02001788    1.00   0.00  0.00  0.00  0.80  0.20  0.00  0.00  0.00  0.00
  YS02001788YS02001790    1.00   0.00  0.00  0.00  0.21  0.79  0.00  0.00  0.79  0.00
  YS02001790YS02001791    1.00   0.00  0.00  0.00  0.01  0.99  0.00  0.00  0.16  0.00
  YS02001791YS02001793    1.00   0.00  0.00  0.00  0.00  1.00  0.00  0.00  0.01  0.00
  YS02001793JiankangQianchi    1.00   0.00  0.00  0.00  0.95  0.05  0.00  0.00  0.96  0.00
  YS02001882YS02001884    1.00   0.15  0.01  0.00  0.84  0.00  0.00  0.00  0.00  0.00
  YS02001884YS02001887    1.00   0.06  0.05  0.00  0.89  0.00  0.00  0.00  0.00  0.00
  YS02001887YS02001890    1.00   0.00  0.00  0.00  0.97  0.00  0.03  0.00  0.00  0.00
  YS02001890YS02001895    1.00   0.00  0.16  0.00  0.84  0.00  0.00  0.00  0.00  0.00
  YS02001895YS02001898    1.00   0.16  0.00  0.00  0.82  0.00  0.02  0.00  0.00  0.00
  YS02001898YS02001901    1.00   0.16  0.00  0.00  0.84  0.00  0.00  0.00  0.01  0.00
  YS02001901YS02001904    1.00   0.16  0.00  0.00  0.84  0.00  0.00  0.00  0.00  0.00
  YS02001904YS02001907    1.00   0.00  0.16  0.00  0.84  0.00  0.00  0.00  0.00  0.00
  YS02001907YS02006553    1.00   0.00  0.02  0.00  0.98  0.00  0.00  0.00  0.00  0.00
  YS02001910YS02001907    1.00   0.00  0.00  0.00  0.97  0.00  0.00  0.03  0.12  0.00
  YS02001915YS02001910    1.00   0.00  0.00  0.00  0.97  0.03  0.00  0.00  0.15  0.00
  YS02001918YS02001915    1.00   0.00  0.01  0.00  0.98  0.02  0.00  0.00  0.73  0.00
  YS02001920YS02001918    1.00   0.00  0.01  0.00  0.99  0.00  0.00  0.00  0.00  0.00
  YS02001923YS02001920    1.00   0.00  0.00  0.00  1.00  0.00  0.00  0.00  0.91  0.00
  YS02001926YS02001923    1.00   0.00  0.07  0.00  0.08  0.00  0.85  0.00  0.00  0.00
  YS02001929YS02001926    1.00   0.00  0.13  0.00  0.87  0.00  0.00  0.00  0.80  0.00
  YS02006553YS02006556    1.00   0.01  0.00  0.00  0.99  0.00  0.00  0.00  0.03  0.00
  YS02006556YS02006558    1.00   0.00  0.00  0.00  1.00  0.00  0.00  0.00  0.00  0.00
  YS02006558YS02006561    1.00   0.17  0.00  0.00  0.07  0.76  0.00  0.00  0.17  0.00
  YS02006561YS02001783    1.00   0.17  0.00  0.00  0.11  0.72  0.00  0.00  0.67  0.00
  YS02163301YS02001633    1.00   0.00  0.15  0.00  0.85  0.00  0.00  0.00  0.00  0.00
  YS02163601YS02164001    1.00   0.00  0.08  0.00  0.92  0.00  0.00  0.00  0.00  0.00
  YS02164001YS02001641    1.00   0.01  0.07  0.00  0.92  0.00  0.00  0.00  0.05  0.00
  
  
  *************************
  Conduit Surcharge Summary
  *************************
  
  ----------------------------------------------------------------------------
                                                           Hours        Hours 
                         --------- Hours Full --------   Above Full   Capacity
  Conduit                Both Ends  Upstream  Dnstream   Normal Flow   Limited
  ----------------------------------------------------------------------------
  WS02003072WS02003073        0.01      0.01      0.01      1.39         0.01
  WS02004403WS02004404        0.01      0.01      0.01      0.01         0.01
  WS02004404WS02004405        0.01      0.01      0.01      3.18         0.01
  WS02004405WS02004406        0.01      0.01      0.01      0.68         0.01
  WS02006109WS02006110        0.75      0.75      2.11      0.87         0.01
  WS02006110WS02006113        0.01      0.01      2.09      0.01         0.01
  WS02006111WS02006112        0.01      0.01      2.46      0.01         0.01
  WS02006112WS02006115        0.01      0.01      0.95      0.01         0.01
  WS02006228WS02006109        2.06      2.11      2.06      2.68         2.06
  WS02006229WS02006228        2.06      2.07      2.06      2.37         2.04
  WS02006230WS02006229        2.16      2.32      2.16      3.68         2.16
  WS02006231WS02006230        0.77      0.77      0.96      3.39         0.01
  WS02006232WS02006231        0.90      0.90      2.11      0.97         0.01
  WS02006234WS02006232        2.02      2.02      2.11      0.95         0.94
  WS02006235WS02006234        1.40      1.41      2.03      3.19         0.02
  WS02006238WS02006235        2.05      2.05      2.10      0.01         0.01
  WS02006239WS02006238        2.08      2.09      2.08      1.96         1.70
  WS02006240WS02006239        2.04      2.07      2.04      1.94         1.59
  WS02006242WS02006240        2.05      2.05      2.13      2.16         0.01
  WS02006243WS02006242        1.91      1.91      2.10      0.01         0.04
  WS02006245WS02006243        1.87      1.87      1.90      1.13         1.10
  WS02006247WS02006245        1.87      1.88      1.87      3.07         1.86
  WS02006248WS02006247        1.85      1.85      1.87      0.01         0.04
  WS02006249WS02006248        1.84      1.85      1.85      3.02         0.01
  WS02006251WS02006249        1.84      1.85      1.85      2.01         1.76
  WS02006252WS02006251        2.08      2.08      2.11      2.09         0.01
  WS02006256WS02006235        3.21      3.25      6.53      1.50         0.01
  YS02001580YS02001583        0.80      0.80      0.84      0.01         0.01
  YS02001583YS02001586        0.80      0.80      0.92      0.01         0.01
  YS02001586YS02001590        0.93      0.93      1.00      0.01         0.01
  YS02001590YS02001593        1.00      1.00      1.02      1.06         0.01
  YS02001593YS02001596        1.02      1.02      1.13      0.01         0.01
  YS02001596YS02001600        1.18      1.18      1.29      0.01         0.01
  YS02001600YS02001601        1.36      1.36      1.59      0.01         0.01
  YS02001601YS02001602        1.49      1.49      1.62      1.30         0.01
  YS02001602YS02001605        1.45      1.45      1.50      2.38         0.01
  YS02001605YS02001607        1.41      1.45      1.41      1.55         1.41
  YS02001607YS02001610        0.98      0.98      1.01      0.01         0.01
  YS02001610YS02001613        0.98      0.98      1.01      0.01         0.01
  YS02001613YS02001616        0.93      0.93      0.98      0.01         0.01
  YS02001616YS02001619        0.92      0.92      0.93      0.08         0.11
  YS02001619YS02001622        0.91      0.92      0.91      1.01         0.88
  YS02001622YS02001625        0.91      0.91      1.11      0.01         0.01
  YS02001625YS02001629        0.86      0.86      1.11      0.01         0.01
  YS02001629YS02163301        1.10      1.10      1.11      0.22         0.22
  YS02001633YS02163601        1.13      1.13      1.17      0.42         0.40
  YS02001641YS02001644        1.04      1.07      1.04      1.65         1.03
  YS02001644YS02001647        0.80      0.80      1.04      0.05         0.01
  YS02001647YS02001649        0.80      0.80      0.93      0.01         0.01
  YS02001649YS02001757        0.92      0.93      1.00      0.12         0.08
  YS02001652YS02001649        0.74      0.74      0.93      0.01         0.01
  YS02001655YS02001652        0.51      0.51      0.71      0.01         0.01
  YS02001658YS02001655        0.30      0.30      0.52      0.01         0.01
  YS02001661YS02001658        0.10      0.10      0.30      0.01         0.01
  YS02001664YS02001661        0.01      0.01      0.17      0.01         0.01
  YS02001745YS02001748        0.01      0.01      0.23      0.01         0.01
  YS02001748YS02001751        0.28      0.28      0.38      0.01         0.01
  YS02001751YS02001754        0.38      0.38      0.60      0.01         0.01
  YS02001754YS02001757        0.64      0.64      1.00      0.01         0.01
  YS02001757CaochengTiaoxuchi        0.86      1.00      1.78      0.50         0.32
  YS02001759YS02001757        0.89      0.89      1.00      0.10         0.11
  YS02001762YS02001759        0.86      0.86      0.89      0.01         0.02
  YS02001765YS02001762        0.81      0.81      0.86      0.01         0.01
  YS02001767YS02001765        0.77      0.77      0.81      0.01         0.03
  YS02001770YS02001767        0.76      0.77      0.77      0.67         0.56
  YS02001774YS02001770        0.74      0.74      0.84      0.01         0.01
  YS02001779YS02001774        0.59      0.59      0.84      0.01         0.01
  YS02001783YS02001784        0.65      0.67      0.65      0.84         0.65
  YS02001784YS02001785        0.53      0.65      0.53      1.10         0.53
  YS02001786YS02001788        0.01      0.53      0.01      0.95         0.01
  YS02001790YS02001791        0.01      0.01      0.01      0.63         0.01
  YS02001793JiankangQianchi        0.01      0.01      7.21      0.01         0.01
  YS02001882YS02001884        0.61      0.61      0.62      0.01         0.01
  YS02001884YS02001887        0.65      0.65      0.66      0.01         0.01
  YS02001887YS02001890        0.68      0.68      0.69      0.19         0.01
  YS02001890YS02001895        0.60      0.60      0.71      0.01         0.01
  YS02001895YS02001898        0.60      0.60      0.60      0.01         0.01
  YS02001898YS02001901        0.60      0.60      0.65      0.01         0.01
  YS02001901YS02001904        0.64      0.64      0.65      0.01         0.01
  YS02001904YS02001907        0.64      0.64      0.93      0.01         0.01
  YS02001907YS02006553        1.11      1.11      1.19      0.01         0.01
  YS02001910YS02001907        0.71      0.71      0.90      0.06         0.06
  YS02001915YS02001910        0.61      0.61      0.71      0.01         0.01
  YS02001918YS02001915        0.52      0.52      0.61      0.01         0.01
  YS02001920YS02001918        0.52      0.52      0.53      0.01         0.01
  YS02001923YS02001920        0.47      0.47      0.53      0.01         0.01
  YS02001926YS02001923        0.21      0.21      0.23      0.01         0.01
  YS02001929YS02001926        0.08      0.08      0.23      0.01         0.01
  YS02006553YS02006556        0.81      0.81      0.93      0.01         0.01
  YS02006556YS02006558        0.87      0.87      0.94      0.01         0.01
  YS02006558YS02006561        0.55      0.79      0.55      1.05         0.55
  YS02006561YS02001783        0.48      0.48      0.67      0.01         0.01
  YS02163301YS02001633        1.11      1.11      1.15      0.01         0.01
  YS02163601YS02164001        1.07      1.07      1.17      0.09         0.01
  YS02164001YS02001641        1.07      1.07      1.07      0.81         0.75
  
  
  ***************
  Pumping Summary
  ***************
  
  ---------------------------------------------------------------------------------------------------------
                                                  Min       Avg       Max     Total     Power    % Time Off
                        Percent   Number of      Flow      Flow      Flow    Volume     Usage    Pump Curve
  Pump                 Utilized   Start-Ups       LPS       LPS       LPS  10^6 ltr     Kw-hr    Low   High
  ---------------------------------------------------------------------------------------------------------
  CC-R1                   25.27          19      0.00    683.00    683.00     4.971     90.22    0.0   38.2
  CC-R2                   22.31          17      0.00    683.00    683.00     4.388     80.09    0.0   36.0
  CC-S1                   35.97          15      0.00    200.00    200.00     2.072     12.13    0.0    0.0
  CC-S2                   29.62          18      0.00    200.00    200.00     1.706      9.94    0.0    0.0
  JK-R1                    5.58           9      0.00   1000.00   1000.00     1.607     15.79    0.0    0.0
  JK-R2                    5.39          10      0.00   1000.00   1000.00     1.553     14.65    0.0    0.0
  JK-S                    18.35          32      0.00    300.00    300.00     1.585     25.19    0.0    0.0
  

  Analysis begun on:  Wed Dec 25 13:04:38 2024
  Analysis ended on:  Wed Dec 25 13:04:40 2024
  Total elapsed time: 00:00:02