
  EPA STORM WATER MANAGEMENT MODEL - VERSION 5.2 (Build 5.2.4)
  PYSWMM TOOLKIT API - VERSION v1.0 (2023-11-27)
  ------------------------------------------------------------

  
  ****************
  Analysis Options
  ****************
  Flow Units ............... CMS
  Process Models:
    Rainfall/Runoff ........ YES
    RDII ................... NO
    Snowmelt ............... NO
    Groundwater ............ NO
    Flow Routing ........... YES
    Ponding Allowed ........ YES
    Water Quality .......... NO
  Infiltration Method ...... HORTON
  Flow Routing Method ...... DYNWAVE
  Surcharge Method ......... EXTRAN
  Starting Date ............ 01/01/2000 08:00:00
  Ending Date .............. 01/01/2000 16:00:00
  Antecedent Dry Days ...... 0.0
  Report Time Step ......... 00:05:00
  Wet Time Step ............ 00:05:00
  Dry Time Step ............ 00:05:00
  Routing Time Step ........ 30.00 sec
  Variable Time Step ....... YES
  Maximum Trials ........... 8
  Number of Threads ........ 1
  Head Tolerance ........... 0.001500 m
  
  
  **************************        Volume         Depth
  Runoff Quantity Continuity     hectare-m            mm
  **************************     ---------       -------
  Total Precipitation ......         3.636        20.179
  Evaporation Loss .........         0.000         0.000
  Infiltration Loss ........         0.000         0.000
  Surface Runoff ...........         3.662        20.322
  Final Storage ............         0.021         0.115
  Continuity Error (%) .....        -1.282
  
  
  **************************        Volume        Volume
  Flow Routing Continuity        hectare-m      10^6 ltr
  **************************     ---------     ---------
  Dry Weather Inflow .......         0.399         3.989
  Wet Weather Inflow .......         3.661        36.614
  Groundwater Inflow .......         0.000         0.000
  RDII Inflow ..............         0.000         0.000
  External Inflow ..........         0.000         0.000
  External Outflow .........         0.663         6.628
  Flooding Loss ............         2.663        26.626
  Evaporation Loss .........         0.000         0.000
  Exfiltration Loss ........         0.000         0.000
  Initial Stored Volume ....         0.000         0.000
  Final Stored Volume ......         0.611         6.107
  Continuity Error (%) .....         3.059
  
  
  *************************
  Highest Continuity Errors
  *************************
  Node T3 (15.28%)
  Node T2 (5.94%)
  Node T5 (5.74%)
  Node J12 (5.70%)
  Node T4 (4.00%)
  
  
  ***************************
  Time-Step Critical Elements
  ***************************
  Link C15 (36.30%)
  
  
  ********************************
  Highest Flow Instability Indexes
  ********************************
  Link C13 (10)
  Link C5 (4)
  Link C6 (2)
  Link C23 (1)
  Link V3 (1)
  
  
  *********************************
  Most Frequent Nonconverging Nodes
  *********************************
  Node Out_to_WWTP (4.10%)
  Node CSO7 (1.83%)
  Node J4 (1.66%)
  Node J15 (0.70%)
  Node CSO9 (0.61%)
  
  
  *************************
  Routing Time Step Summary
  *************************
  Minimum Time Step           :     0.24 sec
  Average Time Step           :    24.87 sec
  Maximum Time Step           :    30.00 sec
  % of Time in Steady State   :     0.00
  Average Iterations per Step :     2.67
  % of Steps Not Converging   :     4.10
  Time Step Frequencies       :
     30.000 - 13.228 sec      :    77.19 %
     13.228 -  5.833 sec      :    22.12 %
      5.833 -  2.572 sec      :     0.70 %
      2.572 -  1.134 sec      :     0.00 %
      1.134 -  0.500 sec      :     0.00 %
  
  
  ***************************
  Subcatchment Runoff Summary
  ***************************
  
  ------------------------------------------------------------------------------------------------------------------------------
                            Total      Total      Total      Total     Imperv       Perv      Total       Total     Peak  Runoff
                           Precip      Runon       Evap      Infil     Runoff     Runoff     Runoff      Runoff   Runoff   Coeff
  Subcatchment                 mm         mm         mm         mm         mm         mm         mm    10^6 ltr      CMS
  ------------------------------------------------------------------------------------------------------------------------------
  SC01                      33.69       0.00       0.00       0.00      34.10       0.00      34.10       11.25    10.58   1.012
  SC02                       9.98       0.00       0.00       0.00      10.03       0.00      10.03        2.28     1.15   1.005
  SC03                      13.62       0.00       0.00       0.00      13.80       0.00      13.80        2.48     1.16   1.013
  SC04                       9.98       0.00       0.00       0.00       9.88       0.00       9.88        0.68     0.26   0.990
  SC05                      33.69       0.00       0.00       0.00      34.08       0.00      34.08        5.32     4.95   1.012
  SC06                      16.05       0.00       0.00       0.00      15.98       0.00      15.98        5.20     2.94   0.996
  SC07                       9.98       0.00       0.00       0.00       9.89       0.00       9.89        0.47     0.18   0.991
  SC08                      13.62       0.00       0.00       0.00      13.65       0.00      13.65        3.82     1.45   1.002
  SC09                      16.05       0.00       0.00       0.00      16.13       0.00      16.13        1.11     0.82   1.005
  SC010                     33.69       0.00       0.00       0.00      34.03       0.00      34.03        4.00     3.59   1.010
  
  
  ******************
  Node Depth Summary
  ******************
  
  ---------------------------------------------------------------------------------
                                 Average  Maximum  Maximum  Time of Max    Reported
                                   Depth    Depth      HGL   Occurrence   Max Depth
  Node                 Type       Meters   Meters   Meters  days hr:min      Meters
  ---------------------------------------------------------------------------------
  J1                   JUNCTION     0.33     7.00    41.00     0  01:23        7.00
  J3                   JUNCTION     0.14     0.17    18.17     0  02:43        0.17
  CSO7                 JUNCTION     0.32     1.20    35.20     0  01:11        1.20
  J5                   JUNCTION     0.08     0.19    32.19     0  01:36        0.19
  CSO9                 JUNCTION     0.40     2.00    42.00     0  01:15        2.00
  J8                   JUNCTION     0.16     0.58    36.58     0  01:25        0.57
  CSO8                 JUNCTION     0.54     2.00    34.00     0  01:05        2.00
  J10                  JUNCTION     0.13     0.38    29.38     0  01:31        0.37
  J13                  JUNCTION     0.08     0.28    29.28     0  01:15        0.28
  J15                  JUNCTION     0.40     3.00    18.00     0  01:22        3.00
  J16                  JUNCTION     0.13     0.79    30.79     0  01:25        0.79
  CSO10                JUNCTION     0.28     1.00    31.00     0  01:04        1.00
  J12                  JUNCTION     0.69     1.00    27.00     0  03:32        1.00
  J4                   JUNCTION     0.23     0.97    33.97     0  01:14        0.76
  J6                   JUNCTION     0.09     0.11    25.11     0  02:29        0.11
  J2                   JUNCTION     0.07     0.08    25.08     0  02:36        0.08
  J19                  JUNCTION     0.15     0.17     8.17     0  01:19        0.17
  J9                   JUNCTION     0.13     0.16    29.16     0  02:48        0.16
  J14                  JUNCTION     0.16     0.19    20.19     0  05:29        0.19
  J17                  JUNCTION     0.11     0.15    20.15     0  02:09        0.15
  J7                   JUNCTION     0.10     0.23    39.23     0  01:52        0.23
  J11                  JUNCTION     0.13     0.30    31.30     0  01:59        0.30
  J18                  JUNCTION     0.07     0.16    29.16     0  01:43        0.16
  Out_to_WWTP          OUTFALL      0.15     0.17     6.17     0  01:20        0.17
  T5                   STORAGE      4.03     5.00    32.00     0  01:18        5.00
  T4                   STORAGE      1.96     3.88    30.88     0  02:27        3.87
  T6                   STORAGE      3.03     5.00    36.00     0  01:28        5.00
  T3                   STORAGE      3.74     5.00    27.00     0  02:49        5.00
  T2                   STORAGE      2.34     4.57    25.57     0  02:08        4.57
  T1                   STORAGE      4.24     5.00    15.00     0  01:18        5.00
  
  
  *******************
  Node Inflow Summary
  *******************
  
  -------------------------------------------------------------------------------------------------
                                  Maximum  Maximum                  Lateral       Total        Flow
                                  Lateral    Total  Time of Max      Inflow      Inflow     Balance
                                   Inflow   Inflow   Occurrence      Volume      Volume       Error
  Node                 Type           CMS      CMS  days hr:min    10^6 ltr    10^6 ltr     Percent
  -------------------------------------------------------------------------------------------------
  J1                   JUNCTION     4.968    4.968     0  01:25        5.88        5.88      -0.103
  J3                   JUNCTION     0.000    0.298     0  02:42           0        6.65       0.743
  CSO7                 JUNCTION     0.191    0.191     0  01:35       0.763       0.763       0.092
  J5                   JUNCTION     0.268    0.341     0  01:35       0.811        1.42       0.018
  CSO9                 JUNCTION     0.830    0.830     0  01:25        1.31        1.31       0.007
  J8                   JUNCTION     2.973    3.098     0  01:25        6.16        6.84       0.021
  CSO8                 JUNCTION     1.458    1.458     0  01:30        4.12        4.12       0.027
  J10                  JUNCTION     1.171    1.657     0  01:30        2.87        5.38      -0.048
  J13                  JUNCTION     1.168    1.168     0  01:15        2.75        2.75      -0.411
  J15                  JUNCTION     0.000   10.983     0  01:25           0        21.9       0.282
  J16                  JUNCTION    10.602   10.602     0  01:25        11.8        11.8      -0.129
  CSO10                JUNCTION     3.598    3.598     0  01:25        4.14        4.14      -0.012
  J12                  JUNCTION     0.000    1.739     0  01:31           0        9.03       6.045
  J4                   JUNCTION     0.000    0.085     0  01:12           0       0.609       0.535
  J6                   JUNCTION     0.000    0.070     0  02:27           0        1.29       0.314
  J2                   JUNCTION     0.000    0.039     0  01:18           0       0.943       0.537
  J19                  JUNCTION     0.000    0.271     0  01:18           0        6.64       0.191
  J9                   JUNCTION     0.000    0.175     0  01:28           0        3.48       0.482
  J14                  JUNCTION     0.000    0.190     0  02:50           0        4.44       0.224
  J17                  JUNCTION     0.000    0.134     0  02:08           0        2.42       0.453
  J7                   JUNCTION     0.000    0.127     0  01:52           0       0.687       0.436
  J11                  JUNCTION     0.000    0.487     0  01:59           0        2.51       0.309
  J18                  JUNCTION     0.000    0.202     0  01:44           0        1.04       0.004
  Out_to_WWTP          OUTFALL      0.000    0.271     0  01:20           0        6.63       0.000
  T5                   STORAGE      0.000    4.674     0  01:25           0        5.87       6.094
  T4                   STORAGE      0.000    0.334     0  01:36           0        1.42       4.165
  T6                   STORAGE      0.000    3.047     0  01:25           0        6.84       2.381
  T3                   STORAGE      0.000    1.635     0  01:33           0        8.51      18.038
  T2                   STORAGE      0.000    1.148     0  01:15           0        2.76       6.310
  T1                   STORAGE      0.000    7.012     0  01:29           0        20.7       3.819
  
  
  **********************
  Node Surcharge Summary
  **********************
  
  Surcharging occurs when water rises above the top of the highest conduit.
  ---------------------------------------------------------------------
                                               Max. Height   Min. Depth
                                   Hours       Above Crown    Below Rim
  Node                 Type      Surcharged         Meters       Meters
  ---------------------------------------------------------------------
  J1                   JUNCTION        0.19          6.000        0.000
  CSO7                 JUNCTION        0.91          0.945        0.000
  CSO9                 JUNCTION        0.75          1.682        0.000
  CSO8                 JUNCTION        1.03          1.547        0.000
  J15                  JUNCTION        0.14          1.000        0.000
  CSO10                JUNCTION        0.84          0.560        0.000
  J4                   JUNCTION        0.89          0.670        1.030
  
  
  *********************
  Node Flooding Summary
  *********************
  
  Flooding refers to all water that overflows a node, whether it ponds or not.
  --------------------------------------------------------------------------
                                                             Total   Maximum
                                 Maximum   Time of Max       Flood    Ponded
                        Hours       Rate    Occurrence      Volume     Depth
  Node                 Flooded       CMS   days hr:min    10^6 ltr    Meters
  --------------------------------------------------------------------------
  J1                      0.04     0.293      0  01:25       0.019     5.000
  CSO7                    0.81     0.117      0  01:35       0.153     0.000
  CSO9                    0.61     0.703      0  01:25       0.624     0.000
  CSO8                    0.90     0.964      0  01:30       1.600     0.000
  J15                     0.11     4.221      0  01:22       1.114     0.000
  CSO10                   0.79     3.396      0  01:25       3.097     0.000
  T5                      2.04     4.635      0  01:25       4.202     0.000
  T6                      1.59     2.603      0  01:28       3.069     0.000
  T3                      0.94     0.336      0  02:57       0.144     0.000
  T1                      6.61     6.741      0  01:29      12.599     0.000
  
  
  **********************
  Storage Volume Summary
  **********************
  
  ------------------------------------------------------------------------------------------------
                         Average    Avg   Evap  Exfil     Maximum    Max    Time of Max    Maximum
                          Volume   Pcnt   Pcnt   Pcnt      Volume   Pcnt     Occurrence    Outflow
  Storage Unit           1000 m³   Full   Loss   Loss     1000 m³   Full    days hr:min        CMS
  ------------------------------------------------------------------------------------------------
  T5                       0.403   80.5    0.0    0.0       0.500  100.0       0  01:18      0.039
  T4                       0.196   39.3    0.0    0.0       0.388   77.5       0  02:27      0.070
  T6                       0.364   60.6    0.0    0.0       0.600  100.0       0  01:28      0.175
  T3                       1.946   74.8    0.0    0.0       2.600  100.0       0  02:49      0.482
  T2                       0.468   46.8    0.0    0.0       0.914   91.4       0  02:08      0.134
  T1                       0.593   84.7    0.0    0.0       0.700  100.0       0  01:18      0.271
  
  
  ***********************
  Outfall Loading Summary
  ***********************
  
  -----------------------------------------------------------
                         Flow       Avg       Max       Total
                         Freq      Flow      Flow      Volume
  Outfall Node           Pcnt       CMS       CMS    10^6 ltr
  -----------------------------------------------------------
  Out_to_WWTP           99.04     0.236     0.271       6.628
  -----------------------------------------------------------
  System                99.04     0.236     0.271       6.628
  
  
  ********************
  Link Flow Summary
  ********************
  
  -----------------------------------------------------------------------------
                                 Maximum  Time of Max   Maximum    Max/    Max/
                                  |Flow|   Occurrence   |Veloc|    Full    Full
  Link                 Type          CMS  days hr:min     m/sec    Flow   Depth
  -----------------------------------------------------------------------------
  C1                   CONDUIT     0.039     0  02:10      0.97    0.01    0.12
  C6                   CONDUIT     0.073     0  01:35      1.29    1.16    0.82
  C2                   CONDUIT     0.070     0  02:29      1.37    0.08    0.24
  C9                   CONDUIT     0.127     0  01:52      1.17    0.43    0.73
  C16                  CONDUIT     0.488     0  01:26      1.83    0.05    0.17
  C3                   CONDUIT     0.190     0  02:59      2.07    0.07    0.18
  C19                  CONDUIT     0.134     0  02:09      1.21    0.05    0.57
  C11                  CONDUIT     0.298     0  02:44      1.84    0.01    0.53
  C20                  CONDUIT    10.533     0  01:25      6.17    0.33    0.70
  C22                  CONDUIT     0.202     0  01:44      1.69    0.09    0.60
  C12                  CONDUIT     0.175     0  02:48      0.76    0.01    0.29
  C17                  CONDUIT     1.573     0  01:31      3.69    0.08    0.27
  C10                  CONDUIT     3.047     0  01:25      2.33    0.31    0.69
  C13                  CONDUIT     1.635     0  01:33      2.95    0.10    0.75
  C18                  CONDUIT     1.148     0  01:15      3.36    0.04    0.57
  C23                  CONDUIT     7.012     0  01:29      3.97    0.77    1.00
  C4                   CONDUIT     4.674     0  01:25      5.95    1.13    1.00
  C7                   CONDUIT     0.334     0  01:36      1.44    0.08    0.60
  C14                  CONDUIT     0.271     0  01:20      2.08    0.02    0.09
  C5                   CONDUIT     0.085     0  01:12      1.67    1.45    1.00
  C8                   CONDUIT     0.127     0  01:52      1.90    1.60    0.86
  C15                  CONDUIT     0.487     0  01:59      3.64    1.55    0.83
  C21                  CONDUIT     0.202     0  01:44      1.90    1.16    0.69
  V4                   ORIFICE     0.070     0  02:27                      1.00
  V5                   ORIFICE     0.039     0  01:18                      1.00
  V1                   ORIFICE     0.271     0  01:18                      1.00
  V6                   ORIFICE     0.175     0  01:28                      1.00
  V3                   ORIFICE     0.190     0  02:50                      1.00
  V2                   ORIFICE     0.134     0  02:08                      1.00
  
  
  ***************************
  Flow Classification Summary
  ***************************
  
  -------------------------------------------------------------------------------------
                      Adjusted    ---------- Fraction of Time in Flow Class ---------- 
                       /Actual         Up    Down  Sub   Sup   Up    Down  Norm  Inlet 
  Conduit               Length    Dry  Dry   Dry   Crit  Crit  Crit  Crit  Ltd   Ctrl  
  -------------------------------------------------------------------------------------
  C1                      1.00   0.00  0.00  0.00  0.87  0.13  0.00  0.00  0.96  0.00
  C6                      1.00   0.00  0.00  0.00  0.14  0.86  0.00  0.00  0.00  0.00
  C2                      1.00   0.00  0.00  0.00  0.14  0.86  0.00  0.00  0.96  0.00
  C9                      1.00   0.00  0.00  0.00  1.00  0.00  0.00  0.00  1.00  0.00
  C16                     1.00   0.00  0.00  0.00  0.67  0.33  0.00  0.00  0.63  0.00
  C3                      1.00   0.00  0.01  0.00  0.05  0.94  0.00  0.00  0.08  0.00
  C19                     1.00   0.00  0.00  0.00  0.74  0.26  0.00  0.00  1.00  0.00
  C11                     1.00   0.00  0.00  0.00  0.18  0.82  0.00  0.00  1.00  0.00
  C20                     1.00   0.00  0.00  0.00  0.80  0.20  0.00  0.00  0.97  0.00
  C22                     1.00   0.00  0.00  0.00  0.95  0.05  0.00  0.00  1.00  0.00
  C12                     1.00   0.00  0.00  0.00  0.95  0.05  0.00  0.00  1.00  0.00
  C17                     1.00   0.00  0.00  0.00  0.75  0.25  0.00  0.00  0.95  0.00
  C10                     1.00   0.00  0.00  0.00  0.94  0.06  0.00  0.00  0.97  0.00
  C13                     1.00   0.00  0.00  0.00  0.85  0.15  0.00  0.00  0.14  0.00
  C18                     1.00   0.00  0.00  0.00  0.85  0.15  0.00  0.00  0.97  0.00
  C23                     1.00   0.00  0.00  0.00  0.89  0.11  0.00  0.00  0.89  0.00
  C4                      1.00   0.00  0.00  0.00  0.94  0.06  0.00  0.00  0.94  0.00
  C7                      1.00   0.00  0.00  0.00  0.89  0.11  0.00  0.00  0.96  0.00
  C14                     1.00   0.00  0.01  0.00  0.01  0.98  0.00  0.00  0.00  0.00
  C5                      1.00   0.00  0.00  0.00  0.95  0.05  0.00  0.00  0.85  0.00
  C8                      1.00   0.00  0.00  0.00  0.10  0.90  0.00  0.00  0.00  0.00
  C15                     1.00   0.00  0.00  0.00  0.00  1.00  0.00  0.00  0.00  0.00
  C21                     1.00   0.00  0.00  0.00  0.00  1.00  0.00  0.00  0.00  0.00
  
  
  *************************
  Conduit Surcharge Summary
  *************************
  
  ----------------------------------------------------------------------------
                                                           Hours        Hours 
                         --------- Hours Full --------   Above Full   Capacity
  Conduit                Both Ends  Upstream  Dnstream   Normal Flow   Limited
  ----------------------------------------------------------------------------
  C6                          0.01      0.89      0.01      0.81         0.01
  C9                          0.01      0.01      0.15      0.01         0.01
  C19                         0.01      0.01      0.34      0.01         0.01
  C11                         0.01      0.01      0.14      0.01         0.01
  C20                         0.01      0.01      0.14      0.01         0.01
  C22                         0.01      0.01      0.39      0.01         0.01
  C10                         0.01      0.01      5.78      0.01         0.01
  C13                         0.01      0.01      6.40      0.01         0.01
  C18                         0.01      0.01      4.16      0.01         0.01
  C23                         0.25      0.25      6.71      0.01         0.01
  C4                          0.19      0.19      6.75      0.10         0.10
  C7                          0.01      0.01      5.77      0.01         0.01
  C5                          0.88      0.92      0.98      0.92         0.86
  C8                          0.01      0.75      0.01      0.77         0.01
  C15                         0.01      1.03      0.01      1.05         0.01
  C21                         0.01      0.84      0.01      0.83         0.01
  

  Analysis begun on:  Mon Dec 23 16:41:23 2024
  Analysis ended on:  Mon Dec 23 16:41:23 2024
  Total elapsed time: < 1 sec