
  EPA STORM WATER MANAGEMENT MODEL - VERSION 5.2 (Build 5.2.4)
  PYSWMM TOOLKIT API - VERSION v1.0 (2023-11-27)
  ------------------------------------------------------------

  
  ****************
  Analysis Options
  ****************
  Flow Units ............... CMS
  Process Models:
    Rainfall/Runoff ........ YES
    RDII ................... NO
    Snowmelt ............... NO
    Groundwater ............ NO
    Flow Routing ........... YES
    Ponding Allowed ........ YES
    Water Quality .......... NO
  Infiltration Method ...... HORTON
  Flow Routing Method ...... DYNWAVE
  Surcharge Method ......... EXTRAN
  Starting Date ............ 01/01/2000 08:00:00
  Ending Date .............. 01/01/2000 16:00:00
  Antecedent Dry Days ...... 0.0
  Report Time Step ......... 00:05:00
  Wet Time Step ............ 00:05:00
  Dry Time Step ............ 00:05:00
  Routing Time Step ........ 30.00 sec
  Variable Time Step ....... YES
  Maximum Trials ........... 8
  Number of Threads ........ 1
  Head Tolerance ........... 0.001500 m
  
  
  **************************        Volume         Depth
  Runoff Quantity Continuity     hectare-m            mm
  **************************     ---------       -------
  Total Precipitation ......         3.288        18.244
  Evaporation Loss .........         0.000         0.000
  Infiltration Loss ........         0.000         0.000
  Surface Runoff ...........         3.326        18.456
  Final Storage ............         0.020         0.112
  Continuity Error (%) .....        -1.777
  
  
  **************************        Volume        Volume
  Flow Routing Continuity        hectare-m      10^6 ltr
  **************************     ---------     ---------
  Dry Weather Inflow .......         0.399         3.989
  Wet Weather Inflow .......         3.327        33.268
  Groundwater Inflow .......         0.000         0.000
  RDII Inflow ..............         0.000         0.000
  External Inflow ..........         0.000         0.000
  External Outflow .........         0.651         6.515
  Flooding Loss ............         2.344        23.445
  Evaporation Loss .........         0.000         0.000
  Exfiltration Loss ........         0.000         0.000
  Initial Stored Volume ....         0.000         0.000
  Final Stored Volume ......         0.608         6.085
  Continuity Error (%) .....         3.253
  
  
  *************************
  Highest Continuity Errors
  *************************
  Node T3 (12.99%)
  Node T5 (12.29%)
  Node T2 (6.13%)
  Node T1 (5.01%)
  Node J12 (4.65%)
  
  
  ***************************
  Time-Step Critical Elements
  ***************************
  Link C15 (33.03%)
  
  
  ********************************
  Highest Flow Instability Indexes
  ********************************
  Link C13 (10)
  Link C5 (2)
  Link C6 (1)
  Link C10 (1)
  
  
  *********************************
  Most Frequent Nonconverging Nodes
  *********************************
  Node Out_to_WWTP (2.78%)
  Node J4 (1.52%)
  Node CSO7 (1.52%)
  Node CSO9 (0.90%)
  Node J8 (0.72%)
  
  
  *************************
  Routing Time Step Summary
  *************************
  Minimum Time Step           :     0.22 sec
  Average Time Step           :    25.51 sec
  Maximum Time Step           :    30.00 sec
  % of Time in Steady State   :     0.00
  Average Iterations per Step :     2.58
  % of Steps Not Converging   :     2.78
  Time Step Frequencies       :
     30.000 - 13.228 sec      :    82.33 %
     13.228 -  5.833 sec      :    17.22 %
      5.833 -  2.572 sec      :     0.27 %
      2.572 -  1.134 sec      :     0.18 %
      1.134 -  0.500 sec      :     0.00 %
  
  
  ***************************
  Subcatchment Runoff Summary
  ***************************
  
  ------------------------------------------------------------------------------------------------------------------------------
                            Total      Total      Total      Total     Imperv       Perv      Total       Total     Peak  Runoff
                           Precip      Runon       Evap      Infil     Runoff     Runoff     Runoff      Runoff   Runoff   Coeff
  Subcatchment                 mm         mm         mm         mm         mm         mm         mm    10^6 ltr      CMS
  ------------------------------------------------------------------------------------------------------------------------------
  SC01                      13.28       0.00       0.00       0.00      13.52       0.00      13.52        4.46     4.62   1.018
  SC02                      11.18       0.00       0.00       0.00      11.32       0.00      11.32        2.58     2.55   1.013
  SC03                      23.07       0.00       0.00       0.00      23.52       0.00      23.52        4.23     4.69   1.019
  SC04                      11.18       0.00       0.00       0.00      11.15       0.00      11.15        0.77     0.52   0.997
  SC05                      13.28       0.00       0.00       0.00      13.50       0.00      13.50        2.11     2.13   1.016
  SC06                      26.37       0.00       0.00       0.00      26.48       0.00      26.48        8.62     5.99   1.004
  SC07                      11.18       0.00       0.00       0.00      11.15       0.00      11.15        0.53     0.36   0.998
  SC08                      23.07       0.00       0.00       0.00      23.36       0.00      23.36        6.54     6.17   1.013
  SC09                      26.37       0.00       0.00       0.00      26.68       0.00      26.68        1.84     1.56   1.012
  SC010                     13.28       0.00       0.00       0.00      13.44       0.00      13.44        1.58     1.47   1.012
  
  
  ******************
  Node Depth Summary
  ******************
  
  ---------------------------------------------------------------------------------
                                 Average  Maximum  Maximum  Time of Max    Reported
                                   Depth    Depth      HGL   Occurrence   Max Depth
  Node                 Type       Meters   Meters   Meters  days hr:min      Meters
  ---------------------------------------------------------------------------------
  J1                   JUNCTION     0.10     0.57    34.57     0  01:25        0.54
  J3                   JUNCTION     0.14     0.17    18.17     0  02:26        0.17
  CSO7                 JUNCTION     0.27     1.20    35.20     0  01:11        1.20
  J5                   JUNCTION     0.08     0.26    32.26     0  01:20        0.25
  CSO9                 JUNCTION     0.42     2.00    42.00     0  01:11        2.00
  J8                   JUNCTION     0.21     2.55    38.55     0  01:23        2.05
  CSO8                 JUNCTION     0.45     2.00    34.00     0  01:02        2.00
  J10                  JUNCTION     0.14     0.68    29.68     0  01:15        0.68
  J13                  JUNCTION     0.08     0.42    29.42     0  01:20        0.41
  J15                  JUNCTION     0.25     0.92    15.92     0  01:28        0.90
  J16                  JUNCTION     0.09     0.51    30.51     0  01:25        0.51
  CSO10                JUNCTION     0.21     1.00    31.00     0  01:16        1.00
  J12                  JUNCTION     0.80     1.09    27.09     0  01:41        1.06
  J4                   JUNCTION     0.19     0.76    33.76     0  01:48        0.75
  J6                   JUNCTION     0.09     0.12    25.12     0  02:24        0.12
  J2                   JUNCTION     0.07     0.08    25.08     0  02:35        0.08
  J19                  JUNCTION     0.15     0.17     8.17     0  01:27        0.17
  J9                   JUNCTION     0.13     0.16    29.16     0  02:49        0.16
  J14                  JUNCTION     0.16     0.19    20.19     0  01:27        0.19
  J17                  JUNCTION     0.12     0.15    20.15     0  01:58        0.15
  J7                   JUNCTION     0.10     0.23    39.23     0  01:50        0.23
  J11                  JUNCTION     0.12     0.30    31.30     0  01:42        0.30
  J18                  JUNCTION     0.06     0.16    29.16     0  01:45        0.16
  Out_to_WWTP          OUTFALL      0.15     0.17     6.17     0  01:27        0.17
  T5                   STORAGE      3.77     5.00    32.00     0  01:26        5.00
  T4                   STORAGE      2.13     4.15    31.15     0  02:23        4.15
  T6                   STORAGE      3.00     5.00    36.00     0  01:20        5.00
  T3                   STORAGE      4.09     5.00    27.00     0  01:34        5.00
  T2                   STORAGE      2.65     5.00    26.00     0  01:37        5.00
  T1                   STORAGE      4.04     5.00    15.00     0  01:26        5.00
  
  
  *******************
  Node Inflow Summary
  *******************
  
  -------------------------------------------------------------------------------------------------
                                  Maximum  Maximum                  Lateral       Total        Flow
                                  Lateral    Total  Time of Max      Inflow      Inflow     Balance
                                   Inflow   Inflow   Occurrence      Volume      Volume       Error
  Node                 Type           CMS      CMS  days hr:min    10^6 ltr    10^6 ltr     Percent
  -------------------------------------------------------------------------------------------------
  J1                   JUNCTION     2.144    2.144     0  01:25        2.67        2.67      -0.005
  J3                   JUNCTION     0.000    0.301     0  02:24           0        6.82       0.693
  CSO7                 JUNCTION     0.365    0.365     0  01:20       0.823       0.823       0.044
  J5                   JUNCTION     0.520    0.596     0  01:20       0.899        1.47      -0.013
  CSO9                 JUNCTION     1.567    1.567     0  01:20        2.04        2.04       0.023
  J8                   JUNCTION     6.024    6.151     0  01:25        9.58        10.3      -0.022
  CSO8                 JUNCTION     6.183    6.183     0  01:15        6.83        6.83       0.017
  J10                  JUNCTION     4.704    5.189     0  01:15        4.62        6.81      -0.124
  J13                  JUNCTION     2.563    2.563     0  01:20        3.05        3.05      -0.531
  J15                  JUNCTION     0.000    5.140     0  01:25           0        15.2       0.794
  J16                  JUNCTION     4.640    4.640     0  01:25        5.02        5.02      -0.185
  CSO10                JUNCTION     1.472    1.472     0  01:25        1.72        1.72      -0.011
  J12                  JUNCTION     0.000    5.109     0  01:15           0        10.4       4.879
  J4                   JUNCTION     0.000    0.085     0  01:14           0       0.579       0.548
  J6                   JUNCTION     0.000    0.073     0  02:23           0        1.34       0.314
  J2                   JUNCTION     0.000    0.039     0  01:26           0       0.919       0.576
  J19                  JUNCTION     0.000    0.271     0  01:26           0        6.53       0.193
  J9                   JUNCTION     0.000    0.175     0  01:21           0        3.46       0.565
  J14                  JUNCTION     0.000    0.190     0  01:34           0        4.58       0.214
  J17                  JUNCTION     0.000    0.140     0  01:37           0        2.57       0.392
  J7                   JUNCTION     0.000    0.127     0  01:50           0       0.695       0.440
  J11                  JUNCTION     0.000    0.487     0  01:42           0         2.2       0.374
  J18                  JUNCTION     0.000    0.202     0  01:45           0       0.797       0.044
  Out_to_WWTP          OUTFALL      0.000    0.271     0  01:27           0        6.52       0.000
  T5                   STORAGE      0.000    2.032     0  01:25           0        2.67      14.017
  T4                   STORAGE      0.000    0.585     0  01:20           0        1.48       4.195
  T6                   STORAGE      0.000    6.151     0  01:25           0        10.3       0.983
  T3                   STORAGE      0.000    4.901     0  01:16           0        9.88      14.936
  T2                   STORAGE      0.000    2.535     0  01:20           0        3.07       6.529
  T1                   STORAGE      0.000    4.141     0  01:24           0          15       5.277
  
  
  **********************
  Node Surcharge Summary
  **********************
  
  Surcharging occurs when water rises above the top of the highest conduit.
  ---------------------------------------------------------------------
                                               Max. Height   Min. Depth
                                   Hours       Above Crown    Below Rim
  Node                 Type      Surcharged         Meters       Meters
  ---------------------------------------------------------------------
  CSO7                 JUNCTION        0.76          0.945        0.000
  CSO9                 JUNCTION        0.82          1.682        0.000
  J8                   JUNCTION        0.06          1.048        0.452
  CSO8                 JUNCTION        0.81          1.547        0.000
  CSO10                JUNCTION        0.54          0.560        0.000
  J4                   JUNCTION        0.70          0.456        1.244
  
  
  *********************
  Node Flooding Summary
  *********************
  
  Flooding refers to all water that overflows a node, whether it ponds or not.
  --------------------------------------------------------------------------
                                                             Total   Maximum
                                 Maximum   Time of Max       Flood    Ponded
                        Hours       Rate    Occurrence      Volume     Depth
  Node                 Flooded       CMS   days hr:min    10^6 ltr    Meters
  --------------------------------------------------------------------------
  CSO7                    0.64     0.287      0  01:20       0.243     0.000
  CSO9                    0.66     1.438      0  01:20       1.344     0.000
  CSO8                    0.67     5.655      0  01:15       4.632     0.000
  CSO10                   0.48     1.264      0  01:25       0.924     0.000
  T5                      1.34     1.887      0  01:26       1.052     0.000
  T6                      1.50     5.971      0  01:25       6.589     0.000
  T3                      2.00     1.564      0  01:34       1.480     0.000
  T2                      0.35     0.257      0  01:37       0.111     0.000
  T1                      6.49     3.585      0  01:29       7.060     0.000
  
  
  **********************
  Storage Volume Summary
  **********************
  
  ------------------------------------------------------------------------------------------------
                         Average    Avg   Evap  Exfil     Maximum    Max    Time of Max    Maximum
                          Volume   Pcnt   Pcnt   Pcnt      Volume   Pcnt     Occurrence    Outflow
  Storage Unit           1000 m³   Full   Loss   Loss     1000 m³   Full    days hr:min        CMS
  ------------------------------------------------------------------------------------------------
  T5                       0.377   75.4    0.0    0.0       0.500  100.0       0  01:26      0.039
  T4                       0.213   42.7    0.0    0.0       0.415   83.0       0  02:23      0.073
  T6                       0.360   60.1    0.0    0.0       0.600  100.0       0  01:20      0.175
  T3                       2.127   81.8    0.0    0.0       2.600  100.0       0  01:34      0.992
  T2                       0.530   53.0    0.0    0.0       1.000  100.0       0  01:37      0.140
  T1                       0.566   80.8    0.0    0.0       0.700  100.0       0  01:26      0.271
  
  
  ***********************
  Outfall Loading Summary
  ***********************
  
  -----------------------------------------------------------
                         Flow       Avg       Max       Total
                         Freq      Flow      Flow      Volume
  Outfall Node           Pcnt       CMS       CMS    10^6 ltr
  -----------------------------------------------------------
  Out_to_WWTP           99.02     0.226     0.271       6.515
  -----------------------------------------------------------
  System                99.02     0.226     0.271       6.515
  
  
  ********************
  Link Flow Summary
  ********************
  
  -----------------------------------------------------------------------------
                                 Maximum  Time of Max   Maximum    Max/    Max/
                                  |Flow|   Occurrence   |Veloc|    Full    Full
  Link                 Type          CMS  days hr:min     m/sec    Flow   Depth
  -----------------------------------------------------------------------------
  C1                   CONDUIT     0.039     0  02:18      0.92    0.01    0.12
  C6                   CONDUIT     0.076     0  01:20      1.29    1.21    0.93
  C2                   CONDUIT     0.073     0  02:24      1.40    0.08    0.24
  C9                   CONDUIT     0.127     0  01:50      1.13    0.43    0.73
  C16                  CONDUIT     0.486     0  01:33      1.86    0.05    0.24
  C3                   CONDUIT     0.190     0  01:36      2.10    0.07    0.18
  C19                  CONDUIT     0.140     0  01:58      1.24    0.05    0.53
  C11                  CONDUIT     0.301     0  02:26      1.83    0.01    0.27
  C20                  CONDUIT     4.594     0  01:25      5.85    0.14    0.34
  C22                  CONDUIT     0.202     0  01:45      1.43    0.09    0.60
  C12                  CONDUIT     0.175     0  02:50      0.76    0.01    0.31
  C17                  CONDUIT     5.062     0  01:15      5.13    0.25    0.35
  C10                  CONDUIT     6.151     0  01:25      3.48    0.63    1.00
  C13                  CONDUIT     4.901     0  01:16      3.62    0.29    0.77
  C18                  CONDUIT     2.535     0  01:20      3.36    0.09    0.60
  C23                  CONDUIT     4.141     0  01:24      2.95    0.46    0.81
  C4                   CONDUIT     2.032     0  01:25      3.09    0.49    0.79
  C7                   CONDUIT     0.585     0  01:20      1.95    0.14    0.63
  C14                  CONDUIT     0.271     0  01:27      2.08    0.02    0.09
  C5                   CONDUIT     0.085     0  01:14      1.75    1.46    1.00
  C8                   CONDUIT     0.127     0  01:50      1.97    1.60    0.86
  C15                  CONDUIT     0.487     0  01:42      3.91    1.55    0.83
  C21                  CONDUIT     0.202     0  01:45      1.91    1.16    0.69
  V4                   ORIFICE     0.073     0  02:23                      1.00
  V5                   ORIFICE     0.039     0  01:26                      1.00
  V1                   ORIFICE     0.271     0  01:26                      1.00
  V6                   ORIFICE     0.175     0  01:21                      1.00
  V3                   ORIFICE     0.190     0  01:34                      1.00
  V2                   ORIFICE     0.140     0  01:37                      1.00
  
  
  ***************************
  Flow Classification Summary
  ***************************
  
  -------------------------------------------------------------------------------------
                      Adjusted    ---------- Fraction of Time in Flow Class ---------- 
                       /Actual         Up    Down  Sub   Sup   Up    Down  Norm  Inlet 
  Conduit               Length    Dry  Dry   Dry   Crit  Crit  Crit  Crit  Ltd   Ctrl  
  -------------------------------------------------------------------------------------
  C1                      1.00   0.00  0.00  0.00  0.92  0.08  0.00  0.00  0.96  0.00
  C6                      1.00   0.00  0.00  0.00  0.12  0.88  0.00  0.00  0.00  0.00
  C2                      1.00   0.00  0.00  0.00  0.13  0.87  0.00  0.00  0.96  0.00
  C9                      1.00   0.00  0.00  0.00  1.00  0.00  0.00  0.00  1.00  0.00
  C16                     1.00   0.00  0.00  0.00  0.70  0.30  0.00  0.00  0.63  0.00
  C3                      1.00   0.00  0.01  0.00  0.05  0.94  0.00  0.00  0.08  0.00
  C19                     1.00   0.00  0.00  0.00  0.62  0.38  0.00  0.00  1.00  0.00
  C11                     1.00   0.00  0.00  0.00  0.14  0.86  0.00  0.00  1.00  0.00
  C20                     1.00   0.00  0.00  0.00  0.80  0.20  0.00  0.00  0.97  0.00
  C22                     1.00   0.00  0.00  0.00  0.97  0.03  0.00  0.00  1.00  0.00
  C12                     1.00   0.00  0.00  0.00  0.95  0.04  0.00  0.00  1.00  0.00
  C17                     1.00   0.00  0.00  0.00  0.82  0.18  0.00  0.00  0.94  0.00
  C10                     1.00   0.00  0.00  0.00  0.93  0.07  0.00  0.00  0.93  0.00
  C13                     1.00   0.00  0.00  0.00  0.85  0.15  0.00  0.00  0.07  0.00
  C18                     1.00   0.00  0.00  0.00  0.84  0.16  0.00  0.00  0.97  0.00
  C23                     1.00   0.00  0.00  0.00  0.89  0.11  0.00  0.00  0.92  0.00
  C4                      1.00   0.00  0.00  0.00  0.94  0.06  0.00  0.00  0.97  0.00
  C7                      1.00   0.00  0.00  0.00  0.90  0.10  0.00  0.00  0.96  0.00
  C14                     1.00   0.00  0.01  0.00  0.01  0.98  0.00  0.00  0.00  0.00
  C5                      1.00   0.00  0.00  0.00  0.95  0.05  0.00  0.00  0.87  0.00
  C8                      1.00   0.00  0.00  0.00  0.11  0.89  0.00  0.00  0.00  0.00
  C15                     1.00   0.00  0.00  0.00  0.00  1.00  0.00  0.00  0.00  0.00
  C21                     1.00   0.00  0.00  0.00  0.00  1.00  0.00  0.00  0.00  0.00
  
  
  *************************
  Conduit Surcharge Summary
  *************************
  
  ----------------------------------------------------------------------------
                                                           Hours        Hours 
                         --------- Hours Full --------   Above Full   Capacity
  Conduit                Both Ends  Upstream  Dnstream   Normal Flow   Limited
  ----------------------------------------------------------------------------
  C6                          0.01      0.70      0.01      0.63         0.01
  C9                          0.01      0.01      0.37      0.01         0.01
  C22                         0.01      0.01      0.11      0.01         0.01
  C10                         0.06      0.06      5.71      0.01         0.01
  C13                         0.01      0.01      6.66      0.01         0.01
  C18                         0.01      0.01      4.57      0.01         0.01
  C23                         0.01      0.01      6.56      0.01         0.01
  C4                          0.01      0.01      6.60      0.01         0.01
  C7                          0.01      0.01      5.93      0.01         0.01
  C5                          0.70      0.76      0.81      0.75         0.68
  C8                          0.01      0.82      0.01      0.84         0.01
  C15                         0.01      0.81      0.01      0.83         0.01
  C21                         0.01      0.54      0.01      0.52         0.01
  

  Analysis begun on:  Mon Dec 23 16:41:15 2024
  Analysis ended on:  Mon Dec 23 16:41:15 2024
  Total elapsed time: < 1 sec