
  EPA STORM WATER MANAGEMENT MODEL - VERSION 5.2 (Build 5.2.4)
  PYSWMM TOOLKIT API - VERSION v1.0 (2023-11-27)
  ------------------------------------------------------------

  
  ****************
  Analysis Options
  ****************
  Flow Units ............... CMS
  Process Models:
    Rainfall/Runoff ........ YES
    RDII ................... NO
    Snowmelt ............... NO
    Groundwater ............ NO
    Flow Routing ........... YES
    Ponding Allowed ........ YES
    Water Quality .......... NO
  Infiltration Method ...... HORTON
  Flow Routing Method ...... DYNWAVE
  Surcharge Method ......... EXTRAN
  Starting Date ............ 01/01/2000 08:00:00
  Ending Date .............. 01/01/2000 16:00:00
  Antecedent Dry Days ...... 0.0
  Report Time Step ......... 00:05:00
  Wet Time Step ............ 00:05:00
  Dry Time Step ............ 00:05:00
  Routing Time Step ........ 30.00 sec
  Variable Time Step ....... YES
  Maximum Trials ........... 8
  Number of Threads ........ 1
  Head Tolerance ........... 0.001500 m
  
  
  **************************        Volume         Depth
  Runoff Quantity Continuity     hectare-m            mm
  **************************     ---------       -------
  Total Precipitation ......         3.294        18.282
  Evaporation Loss .........         0.000         0.000
  Infiltration Loss ........         0.000         0.000
  Surface Runoff ...........         3.329        18.473
  Final Storage ............         0.022         0.123
  Continuity Error (%) .....        -1.722
  
  
  **************************        Volume        Volume
  Flow Routing Continuity        hectare-m      10^6 ltr
  **************************     ---------     ---------
  Dry Weather Inflow .......         0.399         3.989
  Wet Weather Inflow .......         3.330        33.299
  Groundwater Inflow .......         0.000         0.000
  RDII Inflow ..............         0.000         0.000
  External Inflow ..........         0.000         0.000
  External Outflow .........         0.597         5.974
  Flooding Loss ............         2.354        23.544
  Evaporation Loss .........         0.000         0.000
  Exfiltration Loss ........         0.000         0.000
  Initial Stored Volume ....         0.000         0.000
  Final Stored Volume ......         0.653         6.530
  Continuity Error (%) .....         3.321
  
  
  *************************
  Highest Continuity Errors
  *************************
  Node T3 (13.38%)
  Node T5 (12.75%)
  Node T2 (8.27%)
  Node J12 (5.70%)
  Node T4 (5.50%)
  
  
  ***************************
  Time-Step Critical Elements
  ***************************
  Link C15 (33.09%)
  
  
  ********************************
  Highest Flow Instability Indexes
  ********************************
  Link C13 (9)
  Link C5 (3)
  Link C6 (1)
  Link C10 (1)
  
  
  *********************************
  Most Frequent Nonconverging Nodes
  *********************************
  Node Out_to_WWTP (2.96%)
  Node CSO7 (1.70%)
  Node J4 (1.52%)
  Node CSO9 (0.90%)
  Node J8 (0.72%)
  
  
  *************************
  Routing Time Step Summary
  *************************
  Minimum Time Step           :     0.37 sec
  Average Time Step           :    25.56 sec
  Maximum Time Step           :    30.00 sec
  % of Time in Steady State   :     0.00
  Average Iterations per Step :     2.58
  % of Steps Not Converging   :     2.96
  Time Step Frequencies       :
     30.000 - 13.228 sec      :    82.48 %
     13.228 -  5.833 sec      :    17.07 %
      5.833 -  2.572 sec      :     0.27 %
      2.572 -  1.134 sec      :     0.09 %
      1.134 -  0.500 sec      :     0.09 %
  
  
  ***************************
  Subcatchment Runoff Summary
  ***************************
  
  ------------------------------------------------------------------------------------------------------------------------------
                            Total      Total      Total      Total     Imperv       Perv      Total       Total     Peak  Runoff
                           Precip      Runon       Evap      Infil     Runoff     Runoff     Runoff      Runoff   Runoff   Coeff
  Subcatchment                 mm         mm         mm         mm         mm         mm         mm    10^6 ltr      CMS
  ------------------------------------------------------------------------------------------------------------------------------
  SC01                      13.22       0.00       0.00       0.00      13.45       0.00      13.45        4.44     4.62   1.018
  SC02                      11.24       0.00       0.00       0.00      11.37       0.00      11.37        2.59     2.56   1.012
  SC03                      23.33       0.00       0.00       0.00      23.73       0.00      23.73        4.27     4.70   1.017
  SC04                      11.24       0.00       0.00       0.00      11.19       0.00      11.19        0.77     0.52   0.996
  SC05                      13.22       0.00       0.00       0.00      13.43       0.00      13.43        2.10     2.13   1.016
  SC06                      26.28       0.00       0.00       0.00      26.37       0.00      26.37        8.58     5.99   1.003
  SC07                      11.24       0.00       0.00       0.00      11.19       0.00      11.19        0.53     0.36   0.996
  SC08                      23.33       0.00       0.00       0.00      23.59       0.00      23.59        6.61     6.21   1.011
  SC09                      26.28       0.00       0.00       0.00      26.58       0.00      26.58        1.83     1.56   1.011
  SC010                     13.22       0.00       0.00       0.00      13.37       0.00      13.37        1.57     1.47   1.012
  
  
  ******************
  Node Depth Summary
  ******************
  
  ---------------------------------------------------------------------------------
                                 Average  Maximum  Maximum  Time of Max    Reported
                                   Depth    Depth      HGL   Occurrence   Max Depth
  Node                 Type       Meters   Meters   Meters  days hr:min      Meters
  ---------------------------------------------------------------------------------
  J1                   JUNCTION     0.10     0.58    34.58     0  02:10        0.55
  J3                   JUNCTION     0.14     0.17    18.17     0  03:10        0.17
  CSO7                 JUNCTION     0.28     1.20    35.20     0  01:56        1.20
  J5                   JUNCTION     0.08     0.26    32.26     0  02:05        0.25
  CSO9                 JUNCTION     0.42     2.00    42.00     0  01:56        2.00
  J8                   JUNCTION     0.21     2.70    38.70     0  02:08        2.04
  CSO8                 JUNCTION     0.45     2.00    34.00     0  01:47        2.00
  J10                  JUNCTION     0.14     0.68    29.68     0  02:00        0.68
  J13                  JUNCTION     0.08     0.42    29.42     0  02:05        0.41
  J15                  JUNCTION     0.24     0.93    15.93     0  02:13        0.91
  J16                  JUNCTION     0.09     0.51    30.51     0  02:10        0.51
  CSO10                JUNCTION     0.21     1.00    31.00     0  02:01        1.00
  J12                  JUNCTION     0.74     1.09    27.09     0  02:26        1.06
  J4                   JUNCTION     0.19     0.76    33.76     0  02:01        0.75
  J6                   JUNCTION     0.09     0.12    25.12     0  03:08        0.12
  J2                   JUNCTION     0.07     0.08    25.08     0  03:20        0.08
  J19                  JUNCTION     0.14     0.17     8.17     0  02:11        0.17
  J9                   JUNCTION     0.13     0.16    29.16     0  03:35        0.16
  J14                  JUNCTION     0.15     0.19    20.19     0  02:11        0.19
  J17                  JUNCTION     0.11     0.15    20.15     0  02:44        0.15
  J7                   JUNCTION     0.10     0.23    39.23     0  02:35        0.23
  J11                  JUNCTION     0.12     0.30    31.30     0  02:27        0.30
  J18                  JUNCTION     0.06     0.16    29.16     0  02:30        0.16
  Out_to_WWTP          OUTFALL      0.14     0.17     6.17     0  02:12        0.17
  T5                   STORAGE      3.47     5.00    32.00     0  02:11        5.00
  T4                   STORAGE      2.10     4.22    31.22     0  03:07        4.22
  T6                   STORAGE      2.90     5.00    36.00     0  02:05        5.00
  T3                   STORAGE      3.73     5.00    27.00     0  02:18        5.00
  T2                   STORAGE      2.55     5.00    26.00     0  02:20        5.00
  T1                   STORAGE      3.68     5.00    15.00     0  02:10        5.00
  
  
  *******************
  Node Inflow Summary
  *******************
  
  -------------------------------------------------------------------------------------------------
                                  Maximum  Maximum                  Lateral       Total        Flow
                                  Lateral    Total  Time of Max      Inflow      Inflow     Balance
                                   Inflow   Inflow   Occurrence      Volume      Volume       Error
  Node                 Type           CMS      CMS  days hr:min    10^6 ltr    10^6 ltr     Percent
  -------------------------------------------------------------------------------------------------
  J1                   JUNCTION     2.147    2.147     0  02:10        2.66        2.66       0.025
  J3                   JUNCTION     0.000    0.302     0  03:08           0         6.3       0.767
  CSO7                 JUNCTION     0.370    0.370     0  02:05       0.825       0.825       0.053
  J5                   JUNCTION     0.526    0.602     0  02:05       0.901        1.47       0.005
  CSO9                 JUNCTION     1.568    1.568     0  02:05        2.03        2.03       0.021
  J8                   JUNCTION     6.028    6.155     0  02:10        9.54        10.2      -0.074
  CSO8                 JUNCTION     6.220    6.220     0  02:00         6.9         6.9       0.007
  J10                  JUNCTION     4.711    5.196     0  02:00        4.65        6.84      -0.130
  J13                  JUNCTION     2.579    2.579     0  02:05        3.06        3.06      -0.517
  J15                  JUNCTION     0.000    5.148     0  02:10           0        14.5       0.872
  J16                  JUNCTION     4.642    4.642     0  02:10           5           5      -0.175
  CSO10                JUNCTION     1.472    1.472     0  02:10        1.71        1.71      -0.002
  J12                  JUNCTION     0.000    5.119     0  02:00           0        10.2       6.041
  J4                   JUNCTION     0.000    0.085     0  01:59           0       0.574       0.554
  J6                   JUNCTION     0.000    0.073     0  03:07           0        1.29       0.368
  J2                   JUNCTION     0.000    0.039     0  02:11           0        0.85       0.630
  J19                  JUNCTION     0.000    0.271     0  02:11           0        5.99       0.210
  J9                   JUNCTION     0.000    0.175     0  02:06           0        3.31       0.655
  J14                  JUNCTION     0.000    0.190     0  02:18           0        4.17       0.237
  J17                  JUNCTION     0.000    0.140     0  02:21           0        2.42       0.451
  J7                   JUNCTION     0.000    0.127     0  02:35           0       0.686       0.454
  J11                  JUNCTION     0.000    0.487     0  02:27           0         2.2       0.381
  J18                  JUNCTION     0.000    0.202     0  02:30           0       0.788       0.061
  Out_to_WWTP          OUTFALL      0.000    0.271     0  02:12           0        5.97       0.000
  T5                   STORAGE      0.000    2.031     0  02:10           0        2.66      14.617
  T4                   STORAGE      0.000    0.592     0  02:05           0        1.47       5.825
  T6                   STORAGE      0.000    6.154     0  02:10           0        10.2       1.695
  T3                   STORAGE      0.000    4.914     0  02:01           0        9.66      15.444
  T2                   STORAGE      0.000    2.550     0  02:05           0        3.08       9.014
  T1                   STORAGE      0.000    4.093     0  02:08           0        14.3       5.553
  
  
  **********************
  Node Surcharge Summary
  **********************
  
  Surcharging occurs when water rises above the top of the highest conduit.
  ---------------------------------------------------------------------
                                               Max. Height   Min. Depth
                                   Hours       Above Crown    Below Rim
  Node                 Type      Surcharged         Meters       Meters
  ---------------------------------------------------------------------
  CSO7                 JUNCTION        0.77          0.945        0.000
  CSO9                 JUNCTION        0.83          1.682        0.000
  J8                   JUNCTION        0.07          1.205        0.295
  CSO8                 JUNCTION        0.82          1.547        0.000
  CSO10                JUNCTION        0.54          0.560        0.000
  J4                   JUNCTION        0.71          0.457        1.243
  
  
  *********************
  Node Flooding Summary
  *********************
  
  Flooding refers to all water that overflows a node, whether it ponds or not.
  --------------------------------------------------------------------------
                                                             Total   Maximum
                                 Maximum   Time of Max       Flood    Ponded
                        Hours       Rate    Occurrence      Volume     Depth
  Node                 Flooded       CMS   days hr:min    10^6 ltr    Meters
  --------------------------------------------------------------------------
  CSO7                    0.65     0.293      0  02:05       0.251     0.000
  CSO9                    0.67     1.439      0  02:05       1.346     0.000
  CSO8                    0.67     5.694      0  02:00       4.702     0.000
  CSO10                   0.49     1.263      0  02:10       0.925     0.000
  T5                      1.37     1.930      0  02:11       1.082     0.000
  T6                      1.50     5.972      0  02:10       6.596     0.000
  T3                      2.04     1.802      0  02:18       1.600     0.000
  T2                      0.39     0.317      0  02:20       0.145     0.000
  T1                      5.74     3.624      0  02:13       6.888     0.000
  
  
  **********************
  Storage Volume Summary
  **********************
  
  ------------------------------------------------------------------------------------------------
                         Average    Avg   Evap  Exfil     Maximum    Max    Time of Max    Maximum
                          Volume   Pcnt   Pcnt   Pcnt      Volume   Pcnt     Occurrence    Outflow
  Storage Unit           1000 m³   Full   Loss   Loss     1000 m³   Full    days hr:min        CMS
  ------------------------------------------------------------------------------------------------
  T5                       0.347   69.5    0.0    0.0       0.500  100.0       0  02:11      0.039
  T4                       0.210   42.0    0.0    0.0       0.422   84.4       0  03:07      0.073
  T6                       0.348   58.0    0.0    0.0       0.600  100.0       0  02:05      0.175
  T3                       1.938   74.5    0.0    0.0       2.600  100.0       0  02:18      1.071
  T2                       0.511   51.1    0.0    0.0       1.000  100.0       0  02:20      0.140
  T1                       0.515   73.5    0.0    0.0       0.700  100.0       0  02:10      0.271
  
  
  ***********************
  Outfall Loading Summary
  ***********************
  
  -----------------------------------------------------------
                         Flow       Avg       Max       Total
                         Freq      Flow      Flow      Volume
  Outfall Node           Pcnt       CMS       CMS    10^6 ltr
  -----------------------------------------------------------
  Out_to_WWTP           99.01     0.211     0.271       5.974
  -----------------------------------------------------------
  System                99.01     0.211     0.271       5.974
  
  
  ********************
  Link Flow Summary
  ********************
  
  -----------------------------------------------------------------------------
                                 Maximum  Time of Max   Maximum    Max/    Max/
                                  |Flow|   Occurrence   |Veloc|    Full    Full
  Link                 Type          CMS  days hr:min     m/sec    Flow   Depth
  -----------------------------------------------------------------------------
  C1                   CONDUIT     0.039     0  03:03      0.92    0.01    0.12
  C6                   CONDUIT     0.076     0  02:05      1.29    1.21    0.93
  C2                   CONDUIT     0.073     0  03:08      1.41    0.08    0.24
  C9                   CONDUIT     0.127     0  02:36      1.13    0.43    0.73
  C16                  CONDUIT     0.486     0  02:18      1.86    0.05    0.24
  C3                   CONDUIT     0.190     0  02:20      2.10    0.07    0.18
  C19                  CONDUIT     0.140     0  02:44      1.24    0.05    0.54
  C11                  CONDUIT     0.302     0  03:10      1.84    0.01    0.27
  C20                  CONDUIT     4.595     0  02:10      5.84    0.14    0.34
  C22                  CONDUIT     0.202     0  02:30      1.41    0.09    0.60
  C12                  CONDUIT     0.175     0  03:17      0.80    0.01    0.31
  C17                  CONDUIT     5.069     0  02:00      5.13    0.25    0.35
  C10                  CONDUIT     6.154     0  02:10      3.48    0.63    1.00
  C13                  CONDUIT     4.914     0  02:01      3.28    0.29    0.77
  C18                  CONDUIT     2.550     0  02:05      3.36    0.09    0.60
  C23                  CONDUIT     4.093     0  02:08      2.92    0.45    0.81
  C4                   CONDUIT     2.031     0  02:10      3.07    0.49    0.79
  C7                   CONDUIT     0.592     0  02:05      1.79    0.15    0.63
  C14                  CONDUIT     0.271     0  02:12      2.08    0.02    0.09
  C5                   CONDUIT     0.085     0  01:59      1.74    1.45    1.00
  C8                   CONDUIT     0.127     0  02:35      1.97    1.60    0.86
  C15                  CONDUIT     0.487     0  02:27      3.90    1.55    0.83
  C21                  CONDUIT     0.202     0  02:30      1.91    1.16    0.69
  V4                   ORIFICE     0.073     0  03:07                      1.00
  V5                   ORIFICE     0.039     0  02:11                      1.00
  V1                   ORIFICE     0.271     0  02:11                      1.00
  V6                   ORIFICE     0.175     0  02:06                      1.00
  V3                   ORIFICE     0.190     0  02:18                      1.00
  V2                   ORIFICE     0.140     0  02:21                      1.00
  
  
  ***************************
  Flow Classification Summary
  ***************************
  
  -------------------------------------------------------------------------------------
                      Adjusted    ---------- Fraction of Time in Flow Class ---------- 
                       /Actual         Up    Down  Sub   Sup   Up    Down  Norm  Inlet 
  Conduit               Length    Dry  Dry   Dry   Crit  Crit  Crit  Crit  Ltd   Ctrl  
  -------------------------------------------------------------------------------------
  C1                      1.00   0.00  0.00  0.00  0.92  0.08  0.00  0.00  0.96  0.00
  C6                      1.00   0.00  0.00  0.00  0.12  0.88  0.00  0.00  0.00  0.00
  C2                      1.00   0.00  0.00  0.00  0.04  0.96  0.00  0.00  0.96  0.00
  C9                      1.00   0.00  0.00  0.00  1.00  0.00  0.00  0.00  1.00  0.00
  C16                     1.00   0.00  0.00  0.00  0.72  0.28  0.00  0.00  0.61  0.00
  C3                      1.00   0.00  0.01  0.00  0.05  0.94  0.00  0.00  0.08  0.00
  C19                     1.00   0.00  0.00  0.00  0.61  0.39  0.00  0.00  1.00  0.00
  C11                     1.00   0.00  0.00  0.00  0.14  0.86  0.00  0.00  1.00  0.00
  C20                     1.00   0.00  0.00  0.00  0.80  0.20  0.00  0.00  0.97  0.00
  C22                     1.00   0.00  0.00  0.00  0.97  0.03  0.00  0.00  1.00  0.00
  C12                     1.00   0.00  0.00  0.00  0.86  0.14  0.00  0.00  1.00  0.00
  C17                     1.00   0.00  0.00  0.00  0.72  0.28  0.00  0.00  0.94  0.00
  C10                     1.00   0.00  0.00  0.00  0.93  0.07  0.00  0.00  0.94  0.00
  C13                     1.00   0.00  0.00  0.00  0.86  0.14  0.00  0.00  0.17  0.00
  C18                     1.00   0.00  0.00  0.00  0.75  0.25  0.00  0.00  0.97  0.00
  C23                     1.00   0.00  0.00  0.00  0.90  0.10  0.00  0.00  0.92  0.00
  C4                      1.00   0.00  0.00  0.00  0.94  0.06  0.00  0.00  0.97  0.00
  C7                      1.00   0.00  0.00  0.00  0.90  0.10  0.00  0.00  0.96  0.00
  C14                     1.00   0.00  0.01  0.00  0.01  0.98  0.00  0.00  0.09  0.00
  C5                      1.00   0.00  0.00  0.00  0.95  0.05  0.00  0.00  0.87  0.00
  C8                      1.00   0.00  0.00  0.00  0.11  0.89  0.00  0.00  0.00  0.00
  C15                     1.00   0.00  0.00  0.00  0.00  1.00  0.00  0.00  0.00  0.00
  C21                     1.00   0.00  0.00  0.00  0.01  0.99  0.00  0.00  0.00  0.00
  
  
  *************************
  Conduit Surcharge Summary
  *************************
  
  ----------------------------------------------------------------------------
                                                           Hours        Hours 
                         --------- Hours Full --------   Above Full   Capacity
  Conduit                Both Ends  Upstream  Dnstream   Normal Flow   Limited
  ----------------------------------------------------------------------------
  C6                          0.01      0.71      0.01      0.65         0.01
  C9                          0.01      0.01      0.37      0.01         0.01
  C22                         0.01      0.01      0.12      0.01         0.01
  C10                         0.07      0.07      5.54      0.01         0.01
  C13                         0.01      0.01      5.91      0.01         0.01
  C18                         0.01      0.01      4.52      0.01         0.01
  C23                         0.01      0.01      5.82      0.01         0.01
  C4                          0.01      0.01      5.85      0.01         0.01
  C7                          0.01      0.01      5.83      0.01         0.01
  C5                          0.71      0.77      0.82      0.77         0.69
  C8                          0.01      0.82      0.01      0.84         0.01
  C15                         0.01      0.82      0.01      0.83         0.01
  C21                         0.01      0.54      0.01      0.52         0.01
  

  Analysis begun on:  Mon Dec 23 16:41:13 2024
  Analysis ended on:  Mon Dec 23 16:41:14 2024
  Total elapsed time: 00:00:01