
  EPA STORM WATER MANAGEMENT MODEL - VERSION 5.2 (Build 5.2.4)
  PYSWMM TOOLKIT API - VERSION v1.0 (2023-11-27)
  ------------------------------------------------------------

  WARNING 04: minimum elevation drop used for Conduit WS02004404WS02004405
  WARNING 03: negative offset ignored for Link YS02001904YS02001907
  
  ****************
  Analysis Options
  ****************
  Flow Units ............... LPS
  Process Models:
    Rainfall/Runoff ........ YES
    RDII ................... NO
    Snowmelt ............... NO
    Groundwater ............ NO
    Flow Routing ........... YES
    Ponding Allowed ........ NO
    Water Quality .......... NO
  Infiltration Method ...... HORTON
  Flow Routing Method ...... DYNWAVE
  Surcharge Method ......... EXTRAN
  Starting Date ............ 08/28/2015 08:00:00
  Ending Date .............. 08/28/2015 16:00:00
  Antecedent Dry Days ...... 8.0
  Report Time Step ......... 00:01:00
  Wet Time Step ............ 00:01:00
  Dry Time Step ............ 00:01:00
  Routing Time Step ........ 30.00 sec
  Variable Time Step ....... YES
  Maximum Trials ........... 8
  Number of Threads ........ 4
  Head Tolerance ........... 0.001500 m
  
  
  **************************        Volume         Depth
  Runoff Quantity Continuity     hectare-m            mm
  **************************     ---------       -------
  Total Precipitation ......         2.691        81.139
  Evaporation Loss .........         0.000         0.000
  Infiltration Loss ........         0.100         3.026
  Surface Runoff ...........         2.559        77.138
  Final Storage ............         0.033         0.996
  Continuity Error (%) .....        -0.027
  
  
  **************************        Volume        Volume
  Flow Routing Continuity        hectare-m      10^6 ltr
  **************************     ---------     ---------
  Dry Weather Inflow .......         0.025         0.248
  Wet Weather Inflow .......         2.559        25.588
  Groundwater Inflow .......         0.000         0.000
  RDII Inflow ..............         0.000         0.000
  External Inflow ..........         0.083         0.825
  External Outflow .........         1.628        16.276
  Flooding Loss ............         1.059        10.595
  Evaporation Loss .........         0.000         0.000
  Exfiltration Loss ........         0.000         0.000
  Initial Stored Volume ....         0.243         2.431
  Final Stored Volume ......         0.227         2.272
  Continuity Error (%) .....        -0.175
  
  
  *************************
  Highest Continuity Errors
  *************************
  Node YS02001583 (-6.31%)
  Node YS02001884 (4.37%)
  
  
  ***************************
  Time-Step Critical Elements
  ***************************
  Link WS02004404WS02004405 (34.49%)
  Link YS02001791YS02001793 (14.21%)
  Link WS02006238WS02006235 (14.00%)
  Link WS02003066WSF200 (10.50%)
  Link YS02006556YS02006558 (7.14%)
  
  
  ********************************
  Highest Flow Instability Indexes
  ********************************
  Link WS02006113WS02006111 (30)
  Link WS02006238WS02006235 (27)
  Link WS02006111WS02006112 (24)
  Link WS02006110WS02006113 (21)
  Link YS02001607YS02001610 (21)
  
  
  *********************************
  Most Frequent Nonconverging Nodes
  *********************************
  Node CC-1 (11.26%)
  Node CC-2 (11.26%)
  Node JK-1 (11.26%)
  Node JK-2 (11.26%)
  Node WSC (11.26%)
  
  
  *************************
  Routing Time Step Summary
  *************************
  Minimum Time Step           :     0.01 sec
  Average Time Step           :     3.39 sec
  Maximum Time Step           :     6.43 sec
  % of Time in Steady State   :     0.00
  Average Iterations per Step :     3.36
  % of Steps Not Converging   :    11.26
  Time Step Frequencies       :
     30.000 - 13.228 sec      :     0.00 %
     13.228 -  5.833 sec      :    21.89 %
      5.833 -  2.572 sec      :    29.47 %
      2.572 -  1.134 sec      :    38.73 %
      1.134 -  0.500 sec      :     9.91 %
  
  
  ***************************
  Subcatchment Runoff Summary
  ***************************
  
  ------------------------------------------------------------------------------------------------------------------------------
                            Total      Total      Total      Total     Imperv       Perv      Total       Total     Peak  Runoff
                           Precip      Runon       Evap      Infil     Runoff     Runoff     Runoff      Runoff   Runoff   Coeff
  Subcatchment                 mm         mm         mm         mm         mm         mm         mm    10^6 ltr      LPS
  ------------------------------------------------------------------------------------------------------------------------------
  sub60                     81.14       0.00       0.00       1.83      70.21       7.91      78.12        1.03   734.15   0.963
  sub61                     81.14       0.00       0.00       2.64      66.22      11.16      77.38        1.42  1017.92   0.954
  sub62                     81.14       0.00       0.00       1.22      73.37       5.28      78.65        2.15  1419.97   0.969
  sub63                     81.14       0.00       0.00       4.86      56.65      18.68      75.32        1.71  1133.18   0.928
  sub64                     81.14       0.00       0.00       2.46      67.77       9.72      77.48        1.86  1160.24   0.955
  sub65                     81.14       0.00       0.00       2.13      69.34       8.42      77.77        2.14  1294.97   0.958
  sub66                     81.14       0.00       0.00       6.01      56.53      17.53      74.06        3.45  1684.61   0.913
  sub67                     81.14       0.00       0.00       1.17      73.41       5.32      78.73        1.46  1099.78   0.970
  sub68                     81.14       0.00       0.00       2.19      68.60       9.17      77.77        2.14  1462.88   0.959
  sub69                     81.14       0.00       0.00       1.95      68.86      10.23      79.09        2.93  1723.24   0.975
  sub70                     81.14       0.00       0.00       6.50      53.39      21.09      74.48        2.15   944.65   0.918
  sub71                     81.14       0.00       0.00       1.25      73.33       5.25      78.57        2.05  1254.64   0.968
  sub72                     81.14       0.00       0.00       1.11      74.06       4.57      78.63        1.08   604.31   0.969
  
  
  ******************
  Node Depth Summary
  ******************
  
  ---------------------------------------------------------------------------------
                                 Average  Maximum  Maximum  Time of Max    Reported
                                   Depth    Depth      HGL   Occurrence   Max Depth
  Node                 Type       Meters   Meters   Meters  days hr:min      Meters
  ---------------------------------------------------------------------------------
  WS02003060           JUNCTION     0.21     0.38     5.32     0  02:42        0.38
  WS02003066           JUNCTION     0.17     0.30     5.85     0  02:41        0.30
  WS02003067           JUNCTION     0.46     0.70     6.02     0  02:41        0.70
  WS02003069           JUNCTION     0.23     0.43     5.01     0  02:42        0.43
  WS02003072           JUNCTION     0.29     0.50     4.87     0  02:43        0.50
  WS02003073           JUNCTION     0.16     0.30     4.36     0  02:44        0.30
  WS02004401           JUNCTION     0.55     0.85     6.85     0  02:38        0.85
  WS02004402           JUNCTION     0.58     0.88     6.84     0  02:39        0.88
  WS02004403           JUNCTION     0.60     0.89     6.82     0  02:39        0.89
  WS02004404           JUNCTION     0.68     0.96     6.81     0  02:39        0.96
  WS02004405           JUNCTION     0.67     0.96     6.81     0  02:39        0.96
  WS02004406           JUNCTION     0.68     0.96     6.79     0  02:39        0.96
  WS02004407           JUNCTION     0.15     0.30     6.61     0  02:39        0.30
  WS02004409           JUNCTION     0.34     0.67     6.44     0  02:40        0.67
  WS02004410           JUNCTION     0.37     0.68     6.40     0  02:40        0.68
  WS02004411           JUNCTION     0.39     0.69     6.37     0  02:40        0.69
  WS02004412           JUNCTION     0.42     0.70     6.34     0  02:40        0.70
  WS02004413           JUNCTION     0.57     0.86     6.33     0  02:41        0.86
  WS02006109           JUNCTION     0.62     1.03     7.65     0  01:51        0.97
  WS02006110           JUNCTION     0.61     0.99     7.58     0  01:51        0.93
  WS02006111           JUNCTION     0.16     0.29     6.99     0  02:36        0.29
  WS02006112           JUNCTION     0.70     1.08     6.96     0  02:30        1.07
  WS02006113           JUNCTION     0.24     0.46     7.35     0  02:36        0.46
  WS02006115           JUNCTION     0.44     0.75     6.89     0  02:46        0.75
  WS02006116           JUNCTION     0.52     0.83     6.87     0  02:46        0.83
  WS02006228           JUNCTION     0.61     1.06     7.71     0  01:51        1.01
  WS02006229           JUNCTION     0.59     1.08     7.77     0  01:51        1.03
  WS02006230           JUNCTION     0.60     1.20     7.95     0  01:51        1.10
  WS02006231           JUNCTION     0.40     0.94     8.06     0  01:51        0.85
  WS02006232           JUNCTION     0.54     1.13     8.16     0  01:51        1.06
  WS02006234           JUNCTION     0.48     1.14     8.29     0  01:51        1.07
  WS02006235           JUNCTION     0.52     1.22     8.39     0  01:51        1.16
  WS02006238           JUNCTION     0.55     1.25     8.40     0  01:51        1.18
  WS02006239           JUNCTION     0.51     1.23     8.44     0  01:51        1.18
  WS02006240           JUNCTION     0.48     1.19     8.48     0  01:51        1.16
  WS02006242           JUNCTION     0.54     1.26     8.53     0  01:51        1.23
  WS02006243           JUNCTION     0.46     1.16     8.58     0  01:51        1.12
  WS02006245           JUNCTION     0.46     1.13     8.62     0  01:51        1.11
  WS02006247           JUNCTION     0.47     1.15     8.65     0  01:51        1.13
  WS02006248           JUNCTION     0.44     1.08     8.67     0  01:51        1.08
  WS02006249           JUNCTION     0.46     1.09     8.69     0  01:50        1.09
  WS02006251           JUNCTION     0.46     1.39     9.06     0  01:50        1.12
  WS02006252           JUNCTION     0.29     1.50     9.74     0  00:00        0.68
  WS02006256           JUNCTION     1.23     2.35     9.28     0  00:00        2.35
  WSF200               JUNCTION     0.14     0.29     5.52     0  02:41        0.29
  YS02001580           JUNCTION     0.18     1.05     9.59     0  01:42        1.05
  YS02001583           JUNCTION     0.21     1.14     9.64     0  01:42        0.89
  YS02001586           JUNCTION     0.32     1.13     9.30     0  01:42        1.13
  YS02001590           JUNCTION     0.44     1.40     9.26     0  01:42        1.37
  YS02001593           JUNCTION     0.37     1.33     9.19     0  01:42        1.29
  YS02001596           JUNCTION     0.50     1.68     9.10     0  01:42        1.66
  YS02001600           JUNCTION     0.60     1.87     9.00     0  01:42        1.86
  YS02001601           JUNCTION     0.79     2.06     8.90     0  01:42        2.06
  YS02001602           JUNCTION     0.69     1.87     8.77     0  01:42        1.87
  YS02001605           JUNCTION     0.64     1.78     8.68     0  01:42        1.78
  YS02001607           JUNCTION     0.61     1.67     8.52     0  01:42        1.65
  YS02001610           JUNCTION     0.65     1.68     8.48     0  01:42        1.68
  YS02001613           JUNCTION     0.61     1.70     8.54     0  01:42        1.67
  YS02001616           JUNCTION     0.54     1.61     8.52     0  01:42        1.61
  YS02001619           JUNCTION     0.52     1.61     8.54     0  01:42        1.61
  YS02001622           JUNCTION     0.51     1.62     8.52     0  01:42        1.60
  YS02001625           JUNCTION     0.76     1.78     8.38     0  01:42        1.78
  YS02001629           JUNCTION     0.66     1.85     8.40     0  01:42        1.85
  YS02001633           JUNCTION     0.73     2.08     8.53     0  01:44        2.08
  YS02001641           JUNCTION     0.70     2.01     8.45     0  01:44        1.94
  YS02001644           JUNCTION     0.69     1.92     8.35     0  01:44        1.92
  YS02001647           JUNCTION     0.48     1.88     8.49     0  01:44        1.81
  YS02001649           JUNCTION     0.55     2.05     8.44     0  01:46        2.05
  YS02001652           JUNCTION     0.43     1.99     8.59     0  01:46        1.90
  YS02001655           JUNCTION     0.34     2.04     8.89     0  01:46        1.67
  YS02001658           JUNCTION     0.24     2.09     9.23     0  01:46        1.44
  YS02001661           JUNCTION     0.23     1.51     8.92     0  01:46        1.25
  YS02001664           JUNCTION     0.09     0.95     8.87     0  01:47        0.74
  YS02001745           JUNCTION     0.12     1.62     9.14     0  01:46        0.97
  YS02001748           JUNCTION     0.23     2.05     9.13     0  01:46        1.35
  YS02001751           JUNCTION     0.29     2.20     9.08     0  01:46        1.63
  YS02001754           JUNCTION     0.39     2.20     8.81     0  01:46        1.93
  YS02001757           JUNCTION     0.57     2.21     8.47     0  01:47        2.21
  YS02001759           JUNCTION     0.51     2.21     8.57     0  01:47        2.21
  YS02001762           JUNCTION     0.50     2.15     8.55     0  01:47        2.15
  YS02001765           JUNCTION     0.48     2.10     8.55     0  01:45        2.10
  YS02001767           JUNCTION     0.47     2.03     8.52     0  01:45        2.03
  YS02001770           JUNCTION     0.48     1.95     8.44     0  01:45        1.95
  YS02001774           JUNCTION     0.54     2.05     8.47     0  01:45        2.05
  YS02001779           JUNCTION     0.37     1.68     8.37     0  01:45        1.68
  YS02001783           JUNCTION     0.35     1.60     7.74     0  01:44        1.24
  YS02001784           JUNCTION     0.35     1.33     7.40     0  01:44        1.12
  YS02001786           JUNCTION     0.29     1.09     7.12     0  01:44        0.90
  YS02001788           JUNCTION     0.21     0.63     6.61     0  01:49        0.63
  YS02001790           JUNCTION     0.25     0.73     6.37     0  01:47        0.72
  YS02001791           JUNCTION     0.15     0.44     5.91     0  01:54        0.44
  YS02001793           JUNCTION     0.08     0.30     5.13     0  01:54        0.30
  YS02001882           JUNCTION     0.44     1.82     8.53     0  01:43        1.79
  YS02001884           JUNCTION     0.53     1.89     8.51     0  01:48        1.89
  YS02001887           JUNCTION     0.60     2.00     8.54     0  01:48        2.00
  YS02001890           JUNCTION     0.63     1.81     8.32     0  01:43        1.81
  YS02001895           JUNCTION     0.41     1.70     8.45     0  01:43        1.58
  YS02001898           JUNCTION     0.41     1.77     8.51     0  01:43        1.57
  YS02001901           JUNCTION     0.52     1.82     8.43     0  01:43        1.67
  YS02001904           JUNCTION     0.50     1.65     8.28     0  01:44        1.64
  YS02001907           JUNCTION     0.81     1.96     8.25     0  01:43        1.96
  YS02001910           JUNCTION     0.62     2.10     8.61     0  01:43        1.99
  YS02001915           JUNCTION     0.45     2.00     8.72     0  01:43        2.00
  YS02001918           JUNCTION     0.28     1.81     8.88     0  01:44        1.69
  YS02001920           JUNCTION     0.36     2.14     9.15     0  01:45        1.78
  YS02001923           JUNCTION     0.22     2.03     9.29     0  01:45        1.55
  YS02001926           JUNCTION     0.24     1.90     9.35     0  01:45        1.38
  YS02001929           JUNCTION     0.15     1.78     9.47     0  01:45        1.15
  YS02006553           JUNCTION     0.81     2.08     8.37     0  01:48        2.08
  YS02006556           JUNCTION     0.78     2.17     8.48     0  01:48        2.17
  YS02006558           JUNCTION     0.83     2.29     8.56     0  01:48        2.29
  YS02006561           JUNCTION     0.22     1.45     8.11     0  01:44        0.91
  YS02163301           JUNCTION     0.68     1.96     8.48     0  01:48        1.96
  YS02163601           JUNCTION     0.76     2.08     8.48     0  01:44        2.08
  YS02164001           JUNCTION     0.69     2.04     8.50     0  01:44        1.96
  CC-1                 OUTFALL      0.00     0.00     0.00     0  00:00        0.00
  CC-2                 OUTFALL      0.00     0.00     0.00     0  00:00        0.00
  JK-1                 OUTFALL      0.00     0.00     0.00     0  00:00        0.00
  JK-2                 OUTFALL      0.00     0.00     0.00     0  00:00        0.00
  WSC                  OUTFALL      0.16     0.30     0.97     0  02:44        0.30
  CC-storage           STORAGE      0.94     1.80     7.30     0  02:25        1.80
  JK-storage           STORAGE      2.16     4.22     5.02     0  02:17        4.14
  
  
  *******************
  Node Inflow Summary
  *******************
  
  -------------------------------------------------------------------------------------------------
                                  Maximum  Maximum                  Lateral       Total        Flow
                                  Lateral    Total  Time of Max      Inflow      Inflow     Balance
                                   Inflow   Inflow   Occurrence      Volume      Volume       Error
  Node                 Type           LPS      LPS  days hr:min    10^6 ltr    10^6 ltr     Percent
  -------------------------------------------------------------------------------------------------
  WS02003060           JUNCTION     16.53   554.35     0  02:42       0.471        4.47       0.042
  WS02003066           JUNCTION      0.00   537.44     0  02:41           0           4       0.031
  WS02003067           JUNCTION      0.00   537.37     0  02:41           0        4.01       0.099
  WS02003069           JUNCTION      0.32   554.27     0  02:42     0.00912        4.48       0.076
  WS02003072           JUNCTION      0.00   553.82     0  02:43           0        4.48       0.142
  WS02003073           JUNCTION      1.82   555.47     0  02:43      0.0519        4.52       0.107
  WS02004401           JUNCTION      0.00   540.60     0  02:38           0         4.1       0.242
  WS02004402           JUNCTION      0.00   539.99     0  02:39           0         4.1       0.245
  WS02004403           JUNCTION      0.00   539.61     0  02:39           0        4.09       0.241
  WS02004404           JUNCTION      0.16   539.55     0  02:39     0.00462        4.08       0.207
  WS02004405           JUNCTION      0.04   539.42     0  02:39     0.00109        4.07       0.293
  WS02004406           JUNCTION      0.00   539.36     0  02:39           0        4.06       0.506
  WS02004407           JUNCTION      0.00   538.93     0  02:39           0        4.04       0.021
  WS02004409           JUNCTION      0.00   538.50     0  02:39           0        4.04       0.053
  WS02004410           JUNCTION      0.00   538.16     0  02:40           0        4.04       0.097
  WS02004411           JUNCTION      0.00   537.94     0  02:40           0        4.03       0.126
  WS02004412           JUNCTION      0.00   537.72     0  02:40           0        4.03       0.172
  WS02004413           JUNCTION      0.00   537.80     0  02:41           0        4.02       0.317
  WS02006109           JUNCTION      1.23   546.94     0  01:51      0.0351        4.15       0.221
  WS02006110           JUNCTION      0.00   547.91     0  01:51           0        4.14       0.153
  WS02006111           JUNCTION      0.00   560.01     0  02:56           0        4.13       0.014
  WS02006112           JUNCTION      0.00   543.99     0  02:37           0        4.13       0.476
  WS02006113           JUNCTION      0.00   560.09     0  01:51           0        4.14       0.041
  WS02006115           JUNCTION      0.00   549.47     0  02:30           0        4.11       0.153
  WS02006116           JUNCTION      0.00   541.65     0  02:46           0        4.11       0.047
  WS02006228           JUNCTION      0.00   545.65     0  01:51           0        4.12       0.090
  WS02006229           JUNCTION      0.00   546.06     0  01:51           0        4.12       0.129
  WS02006230           JUNCTION     10.28   551.52     0  01:50       0.293        4.13       0.132
  WS02006231           JUNCTION      0.00   543.67     0  01:50           0        3.83      -0.068
  WS02006232           JUNCTION      0.00   544.01     0  01:50           0        3.84       0.231
  WS02006234           JUNCTION      0.00   544.10     0  01:50           0        3.84      -0.182
  WS02006235           JUNCTION      0.00   544.91     0  01:50           0        3.93       0.215
  WS02006238           JUNCTION      0.00   419.70     0  03:17           0        2.64      -0.122
  WS02006239           JUNCTION      0.00   419.88     0  03:17           0        2.61      -0.073
  WS02006240           JUNCTION      0.00   417.73     0  03:17           0        2.57      -0.064
  WS02006242           JUNCTION      0.00   418.17     0  03:17           0        2.53      -0.042
  WS02006243           JUNCTION      0.00   417.42     0  03:17           0         2.5      -0.131
  WS02006245           JUNCTION      0.00   416.31     0  03:16           0         2.5       0.251
  WS02006247           JUNCTION      0.00   416.36     0  03:16           0         2.5       0.017
  WS02006248           JUNCTION      0.00   416.28     0  03:17           0         2.5       0.072
  WS02006249           JUNCTION      0.00   459.02     0  00:00           0        2.87       0.174
  WS02006251           JUNCTION      0.08   406.99     0  01:50     0.00219        2.87      -0.016
  WS02006252           JUNCTION      0.00   400.00     0  00:00           0        2.86      -0.019
  WS02006256           JUNCTION      0.00   300.00     0  00:00           0        1.95      -0.144
  WSF200               JUNCTION      0.00   537.52     0  02:41           0           4       0.008
  YS02001580           JUNCTION      0.00   116.27     0  01:42           0     0.00444       1.543
  YS02001583           JUNCTION      0.00   199.02     0  01:42           0      0.0154      -5.935
  YS02001586           JUNCTION    944.65   944.65     0  01:53        2.15        2.16       0.059
  YS02001590           JUNCTION      0.00   318.01     0  02:13           0        1.49      -0.039
  YS02001593           JUNCTION      0.00   318.12     0  01:48           0        1.49       0.001
  YS02001596           JUNCTION      0.00   318.06     0  01:55           0        1.49      -0.013
  YS02001600           JUNCTION      0.00   318.10     0  01:48           0        1.49       0.000
  YS02001601           JUNCTION   1723.24  2040.81     0  01:51        2.93        4.42       0.002
  YS02001602           JUNCTION      0.00   545.43     0  01:42           0        2.42       0.012
  YS02001605           JUNCTION      0.00   545.96     0  01:42           0        2.27       0.012
  YS02001607           JUNCTION      0.00   546.47     0  01:42           0        2.27       0.079
  YS02001610           JUNCTION      0.00   950.24     0  01:53           0        2.76       0.070
  YS02001613           JUNCTION      0.00   614.59     0  01:53           0        2.14       0.066
  YS02001616           JUNCTION      0.00   613.98     0  01:53           0        2.14       0.007
  YS02001619           JUNCTION   1684.61  1684.61     0  01:52        3.45         5.1      -0.008
  YS02001622           JUNCTION      0.00  1053.82     0  01:53           0        4.61      -0.005
  YS02001625           JUNCTION      0.00  1484.37     0  01:53           0        4.93       0.173
  YS02001629           JUNCTION      0.00   944.20     0  01:42           0        3.64       0.003
  YS02001633           JUNCTION   1295.17  1414.65     0  01:44        2.15        5.31       0.058
  YS02001641           JUNCTION      0.00  1412.96     0  01:44           0        4.86       0.054
  YS02001644           JUNCTION   1160.28  1855.27     0  01:44        1.86        6.72       0.044
  YS02001647           JUNCTION      0.00  1855.66     0  01:44           0        5.72       0.005
  YS02001649           JUNCTION      0.00  2097.76     0  01:44           0        7.44      -0.000
  YS02001652           JUNCTION      0.00  1160.99     0  01:50           0        1.71      -0.085
  YS02001655           JUNCTION      0.15  1162.19     0  01:50     0.00439        1.71       0.042
  YS02001658           JUNCTION      0.00  1160.99     0  01:50           0        1.71      -0.010
  YS02001661           JUNCTION      0.00  1160.94     0  01:50           0        1.71       0.006
  YS02001664           JUNCTION   1133.18  1133.18     0  01:50        1.71        1.71      -0.021
  YS02001745           JUNCTION    734.16   734.16     0  01:50        1.03        1.03       0.141
  YS02001748           JUNCTION      0.04   744.96     0  01:50     0.00128        1.03      -0.242
  YS02001751           JUNCTION      0.01   745.15     0  01:50    0.000313        1.04       0.071
  YS02001754           JUNCTION      0.26   744.72     0  01:50     0.00741        1.05      -0.122
  YS02001757           JUNCTION      0.00  3466.19     0  01:47           0        11.6       0.025
  YS02001759           JUNCTION   1017.96  1467.47     0  01:46        1.42         3.1      -0.016
  YS02001762           JUNCTION      0.00   843.63     0  01:46           0        1.68      -0.009
  YS02001765           JUNCTION      0.00   842.93     0  01:46           0        1.68      -0.006
  YS02001767           JUNCTION      0.54   845.53     0  01:46      0.0152        1.68      -0.007
  YS02001770           JUNCTION   1420.13  1420.13     0  01:50        2.16         2.2      -0.035
  YS02001774           JUNCTION      0.00   850.74     0  01:52           0       0.526       0.175
  YS02001779           JUNCTION      0.01   850.82     0  01:52    0.000142       0.482      -0.106
  YS02001783           JUNCTION      0.00  1179.00     0  01:48           0        4.46       0.001
  YS02001784           JUNCTION      1.06  1178.03     0  01:48      0.0302        4.49       0.009
  YS02001786           JUNCTION      0.06  1179.80     0  01:48      0.0016        4.49       0.016
  YS02001788           JUNCTION      0.07  1181.33     0  01:48     0.00202         4.5       0.007
  YS02001790           JUNCTION      0.15  1188.41     0  01:48     0.00442         4.5       0.025
  YS02001791           JUNCTION      0.00  1290.62     0  01:49           0         4.5      -0.033
  YS02001793           JUNCTION      0.00  1258.44     0  01:48           0         4.5       0.005
  YS02001882           JUNCTION      0.00    52.91     0  01:43           0       0.013       3.053
  YS02001884           JUNCTION      0.00   102.27     0  01:43           0      0.0491       4.569
  YS02001887           JUNCTION   1100.23  1100.23     0  01:50        1.48        1.51       0.273
  YS02001890           JUNCTION      0.00  1100.21     0  01:49           0        1.47       0.323
  YS02001895           JUNCTION      0.00   518.88     0  01:53           0        1.23       0.130
  YS02001898           JUNCTION      0.00   518.59     0  01:53           0        1.22      -0.019
  YS02001901           JUNCTION      0.00   518.77     0  01:49           0        1.23       0.260
  YS02001904           JUNCTION      0.00   518.80     0  01:53           0        1.23       0.198
  YS02001907           JUNCTION      0.00  2663.47     0  01:50           0        4.52       0.375
  YS02001910           JUNCTION      0.00  1859.11     0  01:50           0        3.21       0.215
  YS02001915           JUNCTION   1254.66  1858.79     0  01:51        2.06        3.26       0.029
  YS02001918           JUNCTION      0.00   609.29     0  01:52           0        1.24      -0.001
  YS02001920           JUNCTION      2.87   609.64     0  01:52      0.0818        1.22       0.065
  YS02001923           JUNCTION      0.04   605.25     0  01:52     0.00107        1.12      -0.062
  YS02001926           JUNCTION      0.05   874.97     0  01:45     0.00149         1.1      -0.047
  YS02001929           JUNCTION    604.31   663.01     0  01:45        1.08        1.09      -0.020
  YS02006553           JUNCTION      0.00   800.13     0  02:13           0         2.5       0.464
  YS02006556           JUNCTION      0.00   800.66     0  02:13           0        2.51       0.306
  YS02006558           JUNCTION   1463.76  1463.76     0  01:50        2.17        4.57       0.069
  YS02006561           JUNCTION      0.00  1178.66     0  01:48           0        4.46      -0.001
  YS02163301           JUNCTION      0.00   929.44     0  01:44           0        3.62       0.032
  YS02163601           JUNCTION      0.11  1414.36     0  01:44     0.00313        4.86       0.094
  YS02164001           JUNCTION      0.00  1413.88     0  01:44           0        4.86       0.038
  CC-1                 OUTFALL       0.00   683.00     0  00:00           0        4.68       0.000
  CC-2                 OUTFALL       0.00   683.00     0  00:00           0         4.5       0.000
  JK-1                 OUTFALL       0.00  1000.00     0  00:00           0        2.53       0.000
  JK-2                 OUTFALL       0.00  1000.00     0  00:00           0      0.0484       0.000
  WSC                  OUTFALL       0.00   555.35     0  02:44           0        4.52       0.000
  CC-storage           STORAGE       0.00  3466.07     0  01:47           0        13.8      -0.155
  JK-storage           STORAGE       0.00  1258.78     0  01:48           0        4.65      -0.077
  
  
  **********************
  Node Surcharge Summary
  **********************
  
  Surcharging occurs when water rises above the top of the highest conduit.
  ---------------------------------------------------------------------
                                               Max. Height   Min. Depth
                                   Hours       Above Crown    Below Rim
  Node                 Type      Surcharged         Meters       Meters
  ---------------------------------------------------------------------
  WS02006109           JUNCTION        1.79          0.214        1.606
  WS02006110           JUNCTION        1.42          0.084        1.766
  WS02006112           JUNCTION        1.35          0.080        1.600
  WS02006228           JUNCTION        1.78          0.233        1.967
  WS02006229           JUNCTION        1.79          0.279        2.171
  WS02006230           JUNCTION        1.42          0.121        1.449
  WS02006231           JUNCTION        1.43          0.229        1.301
  WS02006232           JUNCTION        1.81          0.426        1.054
  WS02006234           JUNCTION        1.50          0.417        0.823
  WS02006235           JUNCTION        1.79          0.512        0.778
  WS02006238           JUNCTION        1.80          0.534        0.896
  WS02006239           JUNCTION        1.79          0.495        0.795
  WS02006240           JUNCTION        1.78          0.481        0.909
  WS02006242           JUNCTION        1.80          0.532        0.288
  WS02006243           JUNCTION        1.78          0.448        0.322
  WS02006245           JUNCTION        1.78          0.422        0.428
  WS02006247           JUNCTION        1.78          0.437        0.323
  WS02006248           JUNCTION        1.77          0.362        0.018
  WS02006249           JUNCTION        1.77          0.390        0.000
  WS02006251           JUNCTION        1.44          0.357        0.823
  WS02006252           JUNCTION        1.96          1.100        0.000
  WS02006256           JUNCTION        3.64          2.050        0.000
  YS02001580           JUNCTION        0.77          0.450        0.000
  YS02001583           JUNCTION        0.78          0.500        0.000
  YS02001586           JUNCTION        0.92          0.510        0.000
  YS02001590           JUNCTION        1.00          0.750        0.000
  YS02001593           JUNCTION        1.01          0.707        0.133
  YS02001596           JUNCTION        1.12          0.954        0.116
  YS02001600           JUNCTION        1.28          1.190        0.000
  YS02001601           JUNCTION        1.58          1.440        0.000
  YS02001602           JUNCTION        1.50          1.270        0.000
  YS02001605           JUNCTION        1.46          1.180        0.000
  YS02001607           JUNCTION        1.01          0.674        0.006
  YS02001610           JUNCTION        1.03          0.680        0.000
  YS02001613           JUNCTION        1.00          0.700        0.000
  YS02001616           JUNCTION        0.96          0.610        0.000
  YS02001619           JUNCTION        0.95          0.610        0.000
  YS02001622           JUNCTION        0.94          0.620        0.000
  YS02001625           JUNCTION        1.13          0.780        0.000
  YS02001629           JUNCTION        0.90          0.470        0.000
  YS02001633           JUNCTION        1.17          1.060        0.000
  YS02001641           JUNCTION        1.13          1.013        0.087
  YS02001644           JUNCTION        1.10          0.920        0.000
  YS02001647           JUNCTION        0.90          0.882        0.018
  YS02001649           JUNCTION        1.04          1.050        0.000
  YS02001652           JUNCTION        0.83          0.960        0.170
  YS02001655           JUNCTION        0.63          1.045        0.155
  YS02001658           JUNCTION        0.33          1.093        0.207
  YS02001661           JUNCTION        0.13          0.445        0.945
  YS02001745           JUNCTION        0.01          0.625        0.725
  YS02001748           JUNCTION        0.26          0.971        0.219
  YS02001751           JUNCTION        0.46          1.200        0.000
  YS02001754           JUNCTION        0.73          1.150        0.000
  YS02001757           JUNCTION        1.12          1.210        0.000
  YS02001759           JUNCTION        1.02          1.210        0.000
  YS02001762           JUNCTION        0.99          1.150        0.000
  YS02001765           JUNCTION        0.94          1.100        0.000
  YS02001767           JUNCTION        0.89          1.030        0.000
  YS02001770           JUNCTION        0.87          0.920        0.000
  YS02001774           JUNCTION        0.97          1.050        0.000
  YS02001779           JUNCTION        0.72          0.680        0.000
  YS02001783           JUNCTION        0.66          0.803        0.797
  YS02001784           JUNCTION        0.63          0.532        0.958
  YS02001786           JUNCTION        0.52          0.288        1.142
  YS02001882           JUNCTION        0.60          0.818        0.012
  YS02001884           JUNCTION        0.61          0.834        0.036
  YS02001887           JUNCTION        0.65          0.950        0.000
  YS02001890           JUNCTION        0.66          0.760        0.000
  YS02001895           JUNCTION        0.59          0.704        0.046
  YS02001898           JUNCTION        0.58          0.740        0.000
  YS02001901           JUNCTION        0.63          0.822        0.048
  YS02001904           JUNCTION        0.62          0.651        0.199
  YS02001907           JUNCTION        0.86          0.950        0.000
  YS02001910           JUNCTION        0.69          1.100        0.000
  YS02001915           JUNCTION        0.60          1.000        0.000
  YS02001918           JUNCTION        0.51          0.810        0.000
  YS02001920           JUNCTION        0.52          1.140        0.000
  YS02001923           JUNCTION        0.20          0.820        0.000
  YS02001926           JUNCTION        0.22          0.900        0.000
  YS02001929           JUNCTION        0.09          0.780        0.000
  YS02006553           JUNCTION        0.88          1.084        0.106
  YS02006556           JUNCTION        0.78          1.131        0.219
  YS02006558           JUNCTION        0.77          1.192        0.208
  YS02006561           JUNCTION        0.47          0.649        0.501
  YS02163301           JUNCTION        1.15          0.960        0.070
  YS02163601           JUNCTION        1.21          1.080        0.000
  YS02164001           JUNCTION        1.13          1.040        0.060
  
  
  *********************
  Node Flooding Summary
  *********************
  
  Flooding refers to all water that overflows a node, whether it ponds or not.
  --------------------------------------------------------------------------
                                                             Total   Maximum
                                 Maximum   Time of Max       Flood    Ponded
                        Hours       Rate    Occurrence      Volume     Depth
  Node                 Flooded       LPS   days hr:min    10^6 ltr    Meters
  --------------------------------------------------------------------------
  WS02006249              1.44     98.50      0  01:50       0.366     0.000
  WS02006252              0.01    245.63      0  00:00       0.000     0.000
  WS02006256              1.80    293.19      0  00:00       0.604     0.000
  YS02001580              0.01    104.62      0  01:42       0.000     0.000
  YS02001583              0.01    160.28      0  01:42       0.000     0.000
  YS02001586              0.64    627.06      0  01:53       0.661     0.000
  YS02001590              0.01      3.55      0  01:42       0.000     0.000
  YS02001600              0.01      0.91      0  01:42       0.000     0.000
  YS02001601              0.84   1642.74      0  01:51       1.994     0.000
  YS02001602              0.76     62.04      0  02:01       0.154     0.000
  YS02001605              0.01      3.18      0  01:42       0.000     0.000
  YS02001610              0.66    949.87      0  01:53       1.107     0.000
  YS02001613              0.01      5.80      0  01:42       0.000     0.000
  YS02001616              0.03     20.87      0  01:42       0.000     0.000
  YS02001619              0.07     66.76      0  01:42       0.004     0.000
  YS02001622              0.01    205.45      0  01:42       0.000     0.000
  YS02001625              0.63   1484.33      0  01:53       1.744     0.000
  YS02001629              0.19    387.73      0  01:49       0.140     0.000
  YS02001633              0.01      4.14      0  01:44       0.000     0.000
  YS02001644              0.29   1784.97      0  01:50       0.987     0.000
  YS02001649              0.01     49.95      0  01:46       0.000     0.000
  YS02001751              0.01    237.17      0  01:46       0.000     0.000
  YS02001754              0.01     74.99      0  01:46       0.000     0.000
  YS02001757              0.01      3.48      0  01:47       0.000     0.000
  YS02001759              0.01      3.92      0  01:47       0.000     0.000
  YS02001762              0.01      4.38      0  01:47       0.000     0.000
  YS02001765              0.01     13.56      0  01:45       0.000     0.000
  YS02001767              0.01    138.23      0  01:45       0.000     0.000
  YS02001770              0.08    225.46      0  01:45       0.029     0.000
  YS02001774              0.01     58.75      0  01:45       0.000     0.000
  YS02001779              0.26    850.38      0  01:52       0.464     0.000
  YS02001887              0.01      0.38      0  01:48       0.000     0.000
  YS02001890              0.23    583.35      0  01:49       0.240     0.000
  YS02001898              0.01     40.35      0  01:43       0.000     0.000
  YS02001907              0.45   2663.41      0  01:50       2.088     0.000
  YS02001910              0.01     14.67      0  01:43       0.000     0.000
  YS02001915              0.01    192.78      0  01:43       0.000     0.000
  YS02001918              0.01    189.06      0  01:45       0.003     0.000
  YS02001920              0.01     16.58      0  01:45       0.000     0.000
  YS02001923              0.01    209.29      0  01:45       0.001     0.000
  YS02001926              0.01    779.25      0  01:45       0.003     0.000
  YS02001929              0.01    291.96      0  01:45       0.002     0.000
  YS02163601              0.01     10.17      0  01:44       0.000     0.000
  
  
  **********************
  Storage Volume Summary
  **********************
  
  ------------------------------------------------------------------------------------------------
                         Average    Avg   Evap  Exfil     Maximum    Max    Time of Max    Maximum
                          Volume   Pcnt   Pcnt   Pcnt      Volume   Pcnt     Occurrence    Outflow
  Storage Unit           1000 m³   Full   Loss   Loss     1000 m³   Full    days hr:min        LPS
  ------------------------------------------------------------------------------------------------
  CC-storage               2.632   41.1    0.0    0.0       5.011   78.2       0  02:25    1783.53
  JK-storage               0.109   37.3    0.0    0.0       0.212   72.7       0  02:17    2300.00
  
  
  ***********************
  Outfall Loading Summary
  ***********************
  
  -----------------------------------------------------------
                         Flow       Avg       Max       Total
                         Freq      Flow      Flow      Volume
  Outfall Node           Pcnt       LPS       LPS    10^6 ltr
  -----------------------------------------------------------
  CC-1                  40.11    683.00    683.00       4.679
  CC-2                  38.38    683.00    683.00       4.502
  JK-1                  18.89   1000.00   1000.00       2.528
  JK-2                   0.25   1000.00   1000.00       0.048
  WSC                   99.93    229.11    555.35       4.519
  -----------------------------------------------------------
  System                39.51   3595.11   3366.23      16.276
  
  
  ********************
  Link Flow Summary
  ********************
  
  -----------------------------------------------------------------------------
                                 Maximum  Time of Max   Maximum    Max/    Max/
                                  |Flow|   Occurrence   |Veloc|    Full    Full
  Link                 Type          LPS  days hr:min     m/sec    Flow   Depth
  -----------------------------------------------------------------------------
  1                    CONDUIT    555.35     0  02:44      2.83    0.19    0.30
  WS02003060WS02003069 CONDUIT    553.95     0  02:42      1.64    0.22    0.34
  WS02003066WSF200     CONDUIT    537.52     0  02:41      2.85    0.09    0.22
  WS02003067WS02003066 CONDUIT    537.44     0  02:41      1.21    0.17    0.42
  WS02003069WS02003072 CONDUIT    553.82     0  02:43      1.37    0.27    0.39
  WS02003072WS02003073 CONDUIT    553.64     0  02:43      1.44    1.20    0.37
  WS02004401WS02004402 CONDUIT    539.99     0  02:39      1.23    0.65    0.86
  WS02004402WS02004403 CONDUIT    539.61     0  02:39      1.24    0.78    0.88
  WS02004403WS02004404 CONDUIT    539.38     0  02:39      1.17    0.39    0.93
  WS02004404WS02004405 CONDUIT    539.38     0  02:39      1.43    5.28    0.96
  WS02004405WS02004406 CONDUIT    539.36     0  02:39      1.39    1.06    0.96
  WS02004406WS02004407 CONDUIT    538.93     0  02:39      1.04    0.24    0.63
  WS02004407WS02004409 CONDUIT    538.50     0  02:39      1.56    0.19    0.48
  WS02004409WS02004410 CONDUIT    538.16     0  02:40      1.05    0.70    0.67
  WS02004410WS02004411 CONDUIT    537.94     0  02:40      0.99    0.73    0.69
  WS02004411WS02004412 CONDUIT    537.72     0  02:40      0.94    0.76    0.69
  WS02004412WS02004413 CONDUIT    537.80     0  02:41      0.87    0.36    0.78
  WS02004413WS02003067 CONDUIT    537.37     0  02:41      1.11    0.23    0.59
  WS02006109WS02006110 CONDUIT    547.91     0  01:51      1.09    1.05    1.00
  WS02006110WS02006113 CONDUIT    560.09     0  01:51      1.35    0.51    0.78
  WS02006111WS02006112 CONDUIT    543.99     0  02:37      1.96    0.26    0.67
  WS02006112WS02006115 CONDUIT    549.47     0  02:30      0.86    0.32    0.87
  WS02006113WS02006111 CONDUIT    560.01     0  02:56      2.46    0.67    0.46
  WS02006115WS02006116 CONDUIT    541.65     0  02:46      1.19    0.70    0.76
  WS02006116WS02004401 CONDUIT    540.60     0  02:38      1.22    0.75    0.84
  WS02006228WS02006109 CONDUIT    545.71     0  01:51      1.09    2.38    1.00
  WS02006229WS02006228 CONDUIT    545.65     0  01:51      1.14    1.81    1.00
  WS02006230WS02006229 CONDUIT    546.06     0  01:51      1.42   12.15    1.00
  WS02006231WS02006230 CONDUIT    541.24     0  01:50      1.49    8.21    1.00
  WS02006232WS02006231 CONDUIT    543.67     0  01:50      1.42    1.14    1.00
  WS02006234WS02006232 CONDUIT    544.01     0  01:50      1.41    1.10    1.00
  WS02006235WS02006234 CONDUIT    544.10     0  01:50      1.41    5.74    1.00
  WS02006238WS02006235 CONDUIT    420.37     0  03:17      1.53    0.94    1.00
  WS02006239WS02006238 CONDUIT    419.70     0  03:17      1.10    1.34    1.00
  WS02006240WS02006239 CONDUIT    419.88     0  03:17      1.24    1.32    1.00
  WS02006242WS02006240 CONDUIT    417.73     0  03:17      1.13    1.66    1.00
  WS02006243WS02006242 CONDUIT    418.17     0  03:17      1.40    0.89    1.00
  WS02006245WS02006243 CONDUIT    417.42     0  03:17      1.45    1.23    1.00
  WS02006247WS02006245 CONDUIT    416.31     0  03:16      1.43    3.30    1.00
  WS02006248WS02006247 CONDUIT    416.36     0  03:16      1.44    0.91    1.00
  WS02006249WS02006248 CONDUIT    416.28     0  03:17      1.36    2.28    1.00
  WS02006251WS02006249 CONDUIT    459.02     0  00:00      1.99    1.32    1.00
  WS02006252WS02006251 CONDUIT    406.91     0  01:50     25.30    1.49    1.00
  WS02006256WS02006235 CONDUIT    288.91     0  00:00      4.23    3.06    1.00
  WSF200WS02003060     CONDUIT    537.82     0  02:42      2.06    0.12    0.28
  YS02001580YS02001583 CONDUIT    116.27     0  01:42      0.74    0.45    1.00
  YS02001583YS02001586 CONDUIT    179.20     0  01:42      0.77    0.27    1.00
  YS02001586YS02001590 CONDUIT    318.01     0  02:13      1.26    0.56    1.00
  YS02001590YS02001593 CONDUIT    318.12     0  01:48      1.13    2.00    1.00
  YS02001593YS02001596 CONDUIT    318.06     0  01:55      1.73    0.50    1.00
  YS02001596YS02001600 CONDUIT    318.10     0  01:48      1.24    0.62    1.00
  YS02001600YS02001601 CONDUIT    317.94     0  01:48      1.12    0.55    1.00
  YS02001601YS02001602 CONDUIT    545.43     0  01:42      1.93    1.97    1.00
  YS02001602YS02001605 CONDUIT    545.96     0  01:42      1.93   11.55    1.00
  YS02001605YS02001607 CONDUIT    546.47     0  01:42      1.93    3.00    1.00
  YS02001607YS02001610 CONDUIT    539.65     0  01:42      0.69    0.51    1.00
  YS02001610YS02001613 CONDUIT    614.34     0  01:53      0.78    0.71    1.00
  YS02001613YS02001616 CONDUIT    614.59     0  01:53      0.78    0.53    1.00
  YS02001616YS02001619 CONDUIT    613.98     0  01:53      0.78    1.07    1.00
  YS02001619YS02001622 CONDUIT   1053.82     0  01:53      1.34    1.55    1.00
  YS02001622YS02001625 CONDUIT   1053.57     0  01:53      1.34    0.56    1.00
  YS02001625YS02001629 CONDUIT    944.20     0  01:42      1.21    0.45    1.00
  YS02001629YS02163301 CONDUIT    929.44     0  01:44      1.18    1.14    1.00
  YS02001633YS02163601 CONDUIT   1414.25     0  01:44      1.80    1.48    1.00
  YS02001641YS02001644 CONDUIT   1412.58     0  01:44      1.80    4.57    1.00
  YS02001644YS02001647 CONDUIT   1855.66     0  01:44      2.38    1.09    1.00
  YS02001647YS02001649 CONDUIT   1850.92     0  01:44      2.37    0.98    1.00
  YS02001649YS02001757 CONDUIT   2092.55     0  01:45      2.66    1.27    1.00
  YS02001652YS02001649 CONDUIT   1161.12     0  01:50      1.48    0.58    1.00
  YS02001655YS02001652 CONDUIT   1160.99     0  01:50      1.48    0.56    1.00
  YS02001658YS02001655 CONDUIT   1162.04     0  01:50      1.96    0.49    1.00
  YS02001661YS02001658 CONDUIT   1160.99     0  01:50      2.37    0.46    1.00
  YS02001664YS02001661 CONDUIT   1160.94     0  01:50      2.42    0.36    0.97
  YS02001745YS02001748 CONDUIT    744.91     0  01:50      2.27    0.29    1.00
  YS02001748YS02001751 CONDUIT    745.14     0  01:50      1.78    0.38    1.00
  YS02001751YS02001754 CONDUIT    744.46     0  01:50      1.51    0.36    1.00
  YS02001754YS02001757 CONDUIT    744.90     0  01:50      0.95    0.30    1.00
  YS02001757CaochengTiaoxuchi CONDUIT   3466.07     0  01:47      4.41    1.50    1.00
  YS02001759YS02001757 CONDUIT   1465.52     0  01:49      1.87    1.04    1.00
  YS02001762YS02001759 CONDUIT    844.16     0  01:46      1.07    0.97    1.00
  YS02001765YS02001762 CONDUIT    843.63     0  01:46      1.07    0.79    1.00
  YS02001767YS02001765 CONDUIT    842.93     0  01:46      1.07    1.06    1.00
  YS02001770YS02001767 CONDUIT    845.00     0  01:46      1.08    3.35    1.00
  YS02001774YS02001770 CONDUIT    850.74     0  01:52      1.08    0.54    1.00
  YS02001779YS02001774 CONDUIT    850.82     0  01:52      1.08    0.43    1.00
  YS02001783YS02001784 CONDUIT   1176.97     0  01:48      2.34    1.62    1.00
  YS02001784YS02001785 CONDUIT   1179.74     0  01:48      2.35    2.75    1.00
  YS02001786YS02001788 CONDUIT   1181.26     0  01:48      2.50    2.28    0.89
  YS02001788YS02001790 CONDUIT   1188.25     0  01:48      2.74    0.88    0.84
  YS02001790YS02001791 CONDUIT   1290.62     0  01:49      3.43    1.40    0.71
  YS02001791YS02001793 CONDUIT   1258.44     0  01:48      6.78    0.54    0.45
  YS02001793JiankangQianchi CONDUIT   1258.78     0  01:48      2.52    0.10    0.65
  YS02001882YS02001884 CONDUIT     52.91     0  01:43      0.15    0.06    1.00
  YS02001884YS02001887 CONDUIT    102.27     0  01:43      0.13    0.14    1.00
  YS02001887YS02001890 CONDUIT   1100.21     0  01:49      1.40    1.88    1.00
  YS02001890YS02001895 CONDUIT    518.88     0  01:53      0.66    0.24    1.00
  YS02001895YS02001898 CONDUIT    518.59     0  01:53      0.66    0.90    1.00
  YS02001898YS02001901 CONDUIT    518.77     0  01:49      0.66    0.33    1.00
  YS02001901YS02001904 CONDUIT    518.80     0  01:53      0.66    0.80    1.00
  YS02001904YS02001907 CONDUIT    519.11     0  01:58      0.66    0.18    1.00
  YS02001907YS02006553 CONDUIT    800.13     0  02:13      0.89    0.94    1.00
  YS02001910YS02001907 CONDUIT   1858.74     0  01:51      2.37    1.05    1.00
  YS02001915YS02001910 CONDUIT   1859.11     0  01:50      2.37    0.92    1.00
  YS02001918YS02001915 CONDUIT    609.01     0  01:52      0.78    0.34    1.00
  YS02001920YS02001918 CONDUIT    609.29     0  01:52      0.78    0.59    1.00
  YS02001923YS02001920 CONDUIT    606.77     0  01:52      0.77    0.27    1.00
  YS02001926YS02001923 CONDUIT    605.21     0  01:52      0.97    0.86    1.00
  YS02001929YS02001926 CONDUIT    604.69     0  01:51      1.17    0.29    1.00
  YS02006553YS02006556 CONDUIT    800.66     0  02:13      1.02    0.68    1.00
  YS02006556YS02006558 CONDUIT    800.56     0  02:13      1.02    0.63    1.00
  YS02006558YS02006561 CONDUIT   1178.66     0  01:48      4.17    2.61    1.00
  YS02006561YS02001783 CONDUIT   1179.00     0  01:48      2.35    0.61    1.00
  YS02163301YS02001633 CONDUIT    928.93     0  01:44      1.18    0.87    1.00
  YS02163601YS02164001 CONDUIT   1413.88     0  01:44      1.80    1.25    1.00
  YS02164001YS02001641 CONDUIT   1412.96     0  01:44      1.80    1.93    1.00
  CC-R1                PUMP       683.00     0  00:00              1.00
  CC-R2                PUMP       683.00     0  00:00              1.00
  CC-S1                PUMP       200.00     0  00:00              1.00
  CC-S2                PUMP       200.00     0  00:00              1.00
  JK-R1                PUMP      1000.00     0  00:00              1.00
  JK-R2                PUMP      1000.00     0  00:00              1.00
  JK-S                 PUMP       300.00     0  00:00              1.00
  
  
  ***************************
  Flow Classification Summary
  ***************************
  
  -------------------------------------------------------------------------------------
                      Adjusted    ---------- Fraction of Time in Flow Class ---------- 
                       /Actual         Up    Down  Sub   Sup   Up    Down  Norm  Inlet 
  Conduit               Length    Dry  Dry   Dry   Crit  Crit  Crit  Crit  Ltd   Ctrl  
  -------------------------------------------------------------------------------------
  1                       1.00   0.00  0.00  0.00  0.00  1.00  0.00  0.00  0.60  0.00
  WS02003060WS02003069    1.00   0.00  0.00  0.00  0.97  0.03  0.00  0.00  0.74  0.00
  WS02003066WSF200        1.00   0.06  0.00  0.00  0.00  0.94  0.00  0.00  0.75  0.00
  WS02003067WS02003066    1.00   0.05  0.01  0.00  0.94  0.00  0.00  0.00  0.00  0.00
  WS02003069WS02003072    1.00   0.00  0.00  0.00  0.99  0.01  0.00  0.00  0.76  0.00
  WS02003072WS02003073    1.00   0.00  0.00  0.00  0.00  0.00  0.00  1.00  0.00  0.00
  WS02004401WS02004402    1.00   0.02  0.00  0.00  0.98  0.00  0.00  0.00  0.00  0.00
  WS02004402WS02004403    1.00   0.02  0.00  0.00  0.98  0.00  0.00  0.00  0.00  0.00
  WS02004403WS02004404    1.00   0.00  0.03  0.00  0.97  0.00  0.00  0.00  0.00  0.00
  WS02004404WS02004405    1.00   0.00  0.00  0.00  1.00  0.00  0.00  0.00  0.01  0.00
  WS02004405WS02004406    1.00   0.00  0.00  0.00  1.00  0.00  0.00  0.00  0.00  0.00
  WS02004406WS02004407    1.00   0.00  0.03  0.00  0.96  0.00  0.00  0.00  0.00  0.00
  WS02004407WS02004409    1.00   0.04  0.00  0.00  0.95  0.01  0.00  0.00  0.95  0.00
  WS02004409WS02004410    1.00   0.04  0.00  0.00  0.96  0.00  0.00  0.00  0.00  0.00
  WS02004410WS02004411    1.00   0.04  0.00  0.00  0.96  0.00  0.00  0.00  0.00  0.00
  WS02004411WS02004412    1.00   0.04  0.00  0.00  0.96  0.00  0.00  0.00  0.00  0.00
  WS02004412WS02004413    1.00   0.04  0.00  0.00  0.96  0.00  0.00  0.00  0.00  0.00
  WS02004413WS02003067    1.00   0.04  0.01  0.00  0.00  0.00  0.95  0.00  0.00  0.00
  WS02006109WS02006110    1.00   0.00  0.01  0.00  0.98  0.00  0.01  0.00  0.00  0.00
  WS02006110WS02006113    1.00   0.01  0.01  0.00  0.98  0.00  0.00  0.00  0.00  0.00
  WS02006111WS02006112    1.00   0.02  0.00  0.00  0.98  0.00  0.00  0.00  0.98  0.00
  WS02006112WS02006115    1.00   0.02  0.00  0.00  0.97  0.00  0.00  0.00  0.00  0.00
  WS02006113WS02006111    1.00   0.02  0.00  0.00  0.00  0.98  0.00  0.00  0.11  0.00
  WS02006115WS02006116    1.00   0.02  0.00  0.00  0.97  0.00  0.00  0.01  0.00  0.00
  WS02006116WS02004401    1.00   0.02  0.00  0.00  0.98  0.00  0.00  0.00  0.00  0.00
  WS02006228WS02006109    1.00   0.00  0.00  0.00  1.00  0.00  0.00  0.00  0.00  0.00
  WS02006229WS02006228    1.00   0.00  0.00  0.00  0.99  0.00  0.00  0.01  0.00  0.00
  WS02006230WS02006229    1.00   0.00  0.00  0.00  0.99  0.00  0.00  0.01  0.00  0.00
  WS02006231WS02006230    1.00   0.00  0.00  0.00  0.23  0.00  0.77  0.00  0.00  0.00
  WS02006232WS02006231    1.00   0.00  0.00  0.00  0.99  0.00  0.01  0.00  0.00  0.00
  WS02006234WS02006232    1.00   0.00  0.00  0.00  1.00  0.00  0.00  0.00  0.40  0.00
  WS02006235WS02006234    1.00   0.00  0.00  0.00  0.55  0.00  0.45  0.00  0.00  0.00
  WS02006238WS02006235    1.00   0.00  0.00  0.00  1.00  0.00  0.00  0.00  0.00  0.00
  WS02006239WS02006238    1.00   0.00  0.00  0.00  1.00  0.00  0.00  0.00  0.54  0.00
  WS02006240WS02006239    1.00   0.00  0.00  0.00  0.41  0.00  0.00  0.59  0.02  0.00
  WS02006242WS02006240    1.00   0.00  0.00  0.00  1.00  0.00  0.00  0.00  0.00  0.00
  WS02006243WS02006242    1.00   0.00  0.00  0.00  0.99  0.00  0.00  0.00  0.69  0.00
  WS02006245WS02006243    1.00   0.00  0.00  0.00  0.47  0.00  0.00  0.53  0.00  0.00
  WS02006247WS02006245    1.00   0.00  0.00  0.00  0.99  0.00  0.00  0.01  0.00  0.00
  WS02006248WS02006247    1.00   0.00  0.00  0.00  0.99  0.00  0.00  0.01  0.18  0.00
  WS02006249WS02006248    1.00   0.00  0.00  0.00  0.29  0.00  0.70  0.00  0.00  0.00
  WS02006251WS02006249    1.00   0.00  0.00  0.00  1.00  0.00  0.00  0.00  0.72  0.00
  WS02006252WS02006251    1.00   0.00  0.74  0.00  0.18  0.00  0.07  0.00  0.00  0.00
  WS02006256WS02006235    1.00   0.00  0.00  0.00  1.00  0.00  0.00  0.00  0.00  0.00
  WSF200WS02003060        1.00   0.00  0.06  0.00  0.52  0.42  0.00  0.00  0.69  0.00
  YS02001580YS02001583    1.00   0.21  0.57  0.00  0.22  0.00  0.00  0.00  0.66  0.00
  YS02001583YS02001586    1.00   0.41  0.31  0.00  0.27  0.00  0.00  0.00  0.66  0.00
  YS02001586YS02001590    1.00   0.13  0.00  0.00  0.44  0.04  0.00  0.39  0.34  0.00
  YS02001590YS02001593    1.00   0.13  0.01  0.00  0.14  0.00  0.72  0.00  0.00  0.00
  YS02001593YS02001596    1.00   0.14  0.00  0.00  0.16  0.01  0.00  0.69  0.02  0.00
  YS02001596YS02001600    1.00   0.14  0.00  0.00  0.22  0.01  0.00  0.64  0.04  0.00
  YS02001600YS02001601    1.00   0.13  0.01  0.00  0.86  0.00  0.00  0.00  0.59  0.00
  YS02001601YS02001602    1.00   0.13  0.01  0.00  0.86  0.00  0.00  0.00  0.00  0.00
  YS02001602YS02001605    1.00   0.14  0.00  0.00  0.86  0.00  0.00  0.00  0.00  0.00
  YS02001605YS02001607    1.00   0.14  0.00  0.00  0.86  0.00  0.00  0.00  0.00  0.00
  YS02001607YS02001610    1.00   0.13  0.01  0.00  0.86  0.00  0.00  0.00  0.01  0.00
  YS02001610YS02001613    1.00   0.13  0.00  0.00  0.87  0.00  0.00  0.00  0.00  0.00
  YS02001613YS02001616    1.00   0.13  0.00  0.00  0.87  0.00  0.00  0.00  0.00  0.00
  YS02001616YS02001619    1.00   0.13  0.00  0.00  0.87  0.00  0.00  0.00  0.00  0.00
  YS02001619YS02001622    1.00   0.13  0.00  0.00  0.87  0.00  0.00  0.00  0.28  0.00
  YS02001622YS02001625    1.00   0.13  0.00  0.00  0.87  0.00  0.00  0.00  0.04  0.00
  YS02001625YS02001629    1.00   0.13  0.04  0.00  0.19  0.00  0.64  0.00  0.00  0.00
  YS02001629YS02163301    1.00   0.15  0.01  0.00  0.84  0.00  0.00  0.00  0.00  0.00
  YS02001633YS02163601    1.00   0.00  0.01  0.00  0.99  0.00  0.00  0.00  0.15  0.00
  YS02001641YS02001644    1.00   0.00  0.01  0.00  0.99  0.00  0.00  0.00  0.00  0.00
  YS02001644YS02001647    1.00   0.00  0.17  0.00  0.83  0.00  0.00  0.00  0.00  0.00
  YS02001647YS02001649    1.00   0.00  0.17  0.00  0.57  0.26  0.00  0.00  0.56  0.00
  YS02001649YS02001757    1.00   0.00  0.00  0.00  0.71  0.28  0.00  0.00  0.45  0.00
  YS02001652YS02001649    1.00   0.00  0.00  0.00  0.97  0.03  0.00  0.00  0.73  0.00
  YS02001655YS02001652    1.00   0.00  0.00  0.00  0.21  0.01  0.00  0.79  0.03  0.00
  YS02001658YS02001655    1.00   0.00  0.14  0.00  0.69  0.17  0.00  0.00  0.64  0.00
  YS02001661YS02001658    1.00   0.14  0.00  0.00  0.53  0.33  0.00  0.00  0.68  0.00
  YS02001664YS02001661    1.00   0.13  0.00  0.00  0.78  0.09  0.00  0.00  0.84  0.00
  YS02001745YS02001748    1.00   0.00  0.00  0.00  0.14  0.01  0.00  0.86  0.05  0.00
  YS02001748YS02001751    1.00   0.00  0.00  0.00  0.86  0.14  0.00  0.00  0.76  0.00
  YS02001751YS02001754    1.00   0.00  0.00  0.00  0.19  0.00  0.00  0.81  0.02  0.00
  YS02001754YS02001757    1.00   0.00  0.00  0.00  1.00  0.00  0.00  0.00  0.80  0.00
  YS02001757CaochengTiaoxuchi    1.00   0.00  0.00  0.00  0.98  0.02  0.00  0.00  0.78  0.00
  YS02001759YS02001757    1.00   0.00  0.00  0.00  0.99  0.01  0.00  0.00  0.60  0.00
  YS02001762YS02001759    1.00   0.00  0.00  0.00  1.00  0.00  0.00  0.00  0.04  0.00
  YS02001765YS02001762    1.00   0.00  0.00  0.00  1.00  0.00  0.00  0.00  0.72  0.00
  YS02001767YS02001765    1.00   0.00  0.00  0.00  1.00  0.00  0.00  0.00  0.00  0.00
  YS02001770YS02001767    1.00   0.00  0.00  0.00  1.00  0.00  0.00  0.00  0.00  0.00
  YS02001774YS02001770    1.00   0.00  0.13  0.00  0.71  0.00  0.16  0.00  0.03  0.00
  YS02001779YS02001774    1.00   0.00  0.00  0.00  1.00  0.00  0.00  0.00  0.76  0.00
  YS02001783YS02001784    1.00   0.00  0.17  0.00  0.83  0.00  0.00  0.00  0.55  0.00
  YS02001784YS02001785    1.00   0.00  0.00  0.00  1.00  0.00  0.00  0.00  0.16  0.00
  YS02001786YS02001788    1.00   0.00  0.00  0.00  0.80  0.20  0.00  0.00  0.00  0.00
  YS02001788YS02001790    1.00   0.00  0.00  0.00  0.22  0.78  0.00  0.00  0.79  0.00
  YS02001790YS02001791    1.00   0.00  0.00  0.00  0.01  0.99  0.00  0.00  0.16  0.00
  YS02001791YS02001793    1.00   0.00  0.00  0.00  0.00  1.00  0.00  0.00  0.01  0.00
  YS02001793JiankangQianchi    1.00   0.00  0.00  0.00  0.95  0.05  0.00  0.00  0.98  0.00
  YS02001882YS02001884    1.00   0.15  0.01  0.00  0.84  0.00  0.00  0.00  0.00  0.00
  YS02001884YS02001887    1.00   0.06  0.05  0.00  0.89  0.00  0.00  0.00  0.00  0.00
  YS02001887YS02001890    1.00   0.00  0.00  0.00  0.97  0.00  0.03  0.00  0.00  0.00
  YS02001890YS02001895    1.00   0.00  0.16  0.00  0.84  0.00  0.00  0.00  0.00  0.00
  YS02001895YS02001898    1.00   0.16  0.00  0.00  0.82  0.00  0.02  0.00  0.00  0.00
  YS02001898YS02001901    1.00   0.16  0.00  0.00  0.84  0.00  0.00  0.00  0.01  0.00
  YS02001901YS02001904    1.00   0.16  0.00  0.00  0.84  0.00  0.00  0.00  0.00  0.00
  YS02001904YS02001907    1.00   0.00  0.16  0.00  0.84  0.00  0.00  0.00  0.00  0.00
  YS02001907YS02006553    1.00   0.00  0.02  0.00  0.98  0.00  0.00  0.00  0.00  0.00
  YS02001910YS02001907    1.00   0.00  0.00  0.00  0.97  0.00  0.00  0.03  0.12  0.00
  YS02001915YS02001910    1.00   0.00  0.00  0.00  0.97  0.03  0.00  0.00  0.15  0.00
  YS02001918YS02001915    1.00   0.00  0.01  0.00  0.98  0.02  0.00  0.00  0.73  0.00
  YS02001920YS02001918    1.00   0.00  0.01  0.00  0.99  0.00  0.00  0.00  0.00  0.00
  YS02001923YS02001920    1.00   0.00  0.00  0.00  1.00  0.00  0.00  0.00  0.91  0.00
  YS02001926YS02001923    1.00   0.00  0.07  0.00  0.08  0.00  0.85  0.00  0.00  0.00
  YS02001929YS02001926    1.00   0.00  0.13  0.00  0.87  0.00  0.00  0.00  0.80  0.00
  YS02006553YS02006556    1.00   0.01  0.00  0.00  0.99  0.00  0.00  0.00  0.03  0.00
  YS02006556YS02006558    1.00   0.00  0.00  0.00  1.00  0.00  0.00  0.00  0.00  0.00
  YS02006558YS02006561    1.00   0.17  0.00  0.00  0.07  0.75  0.00  0.00  0.18  0.00
  YS02006561YS02001783    1.00   0.17  0.00  0.00  0.10  0.72  0.00  0.00  0.67  0.00
  YS02163301YS02001633    1.00   0.00  0.15  0.00  0.85  0.00  0.00  0.00  0.00  0.00
  YS02163601YS02164001    1.00   0.00  0.08  0.00  0.92  0.00  0.00  0.00  0.00  0.00
  YS02164001YS02001641    1.00   0.01  0.07  0.00  0.92  0.00  0.00  0.00  0.05  0.00
  
  
  *************************
  Conduit Surcharge Summary
  *************************
  
  ----------------------------------------------------------------------------
                                                           Hours        Hours 
                         --------- Hours Full --------   Above Full   Capacity
  Conduit                Both Ends  Upstream  Dnstream   Normal Flow   Limited
  ----------------------------------------------------------------------------
  WS02003072WS02003073        0.01      0.01      0.01      1.41         0.01
  WS02004404WS02004405        0.01      0.01      0.01      2.32         0.01
  WS02004405WS02004406        0.01      0.01      0.01      1.34         0.01
  WS02006109WS02006110        1.42      1.42      1.81      1.43         0.01
  WS02006110WS02006113        0.01      0.01      1.80      0.01         0.01
  WS02006111WS02006112        0.01      0.01      1.86      0.01         0.01
  WS02006112WS02006115        0.01      0.01      1.35      0.01         0.01
  WS02006228WS02006109        1.79      1.81      1.79      1.99         1.79
  WS02006229WS02006228        1.78      1.79      1.78      1.90         1.78
  WS02006230WS02006229        1.82      1.84      1.82      2.80         1.82
  WS02006231WS02006230        1.42      1.42      1.44      2.57         0.01
  WS02006232WS02006231        1.43      1.43      1.81      1.45         0.01
  WS02006234WS02006232        1.78      1.78      1.81      1.44         1.45
  WS02006235WS02006234        1.49      1.49      1.79      2.44         0.01
  WS02006238WS02006235        1.79      1.79      1.81      0.01         0.01
  WS02006239WS02006238        1.80      1.80      1.80      1.86         1.68
  WS02006240WS02006239        1.78      1.79      1.79      1.86         1.54
  WS02006242WS02006240        1.78      1.78      1.82      1.92         0.01
  WS02006243WS02006242        1.78      1.78      1.80      0.01         0.01
  WS02006245WS02006243        1.78      1.78      1.78      0.46         0.56
  WS02006247WS02006245        1.77      1.78      1.77      2.01         1.77
  WS02006248WS02006247        1.77      1.77      1.78      0.01         0.01
  WS02006249WS02006248        1.77      1.77      1.77      1.99         0.01
  WS02006251WS02006249        1.76      1.76      1.77      1.93         1.76
  WS02006252WS02006251        1.95      1.95      1.95      1.95         0.01
  WS02006256WS02006235        2.51      2.52      3.64      1.80         0.01
  YS02001580YS02001583        0.77      0.77      0.83      0.01         0.01
  YS02001583YS02001586        0.78      0.78      0.92      0.01         0.01
  YS02001586YS02001590        0.93      0.93      1.00      0.01         0.01
  YS02001590YS02001593        1.01      1.01      1.02      1.06         0.01
  YS02001593YS02001596        1.02      1.02      1.12      0.01         0.01
  YS02001596YS02001600        1.17      1.17      1.28      0.01         0.01
  YS02001600YS02001601        1.34      1.34      1.58      0.01         0.01
  YS02001601YS02001602        1.50      1.50      1.61      1.26         0.01
  YS02001602YS02001605        1.46      1.46      1.50      2.31         0.01
  YS02001605YS02001607        1.43      1.46      1.43      1.55         1.43
  YS02001607YS02001610        1.01      1.01      1.03      0.01         0.01
  YS02001610YS02001613        1.00      1.00      1.03      0.01         0.01
  YS02001613YS02001616        0.96      0.96      1.00      0.01         0.01
  YS02001616YS02001619        0.95      0.95      0.96      0.07         0.10
  YS02001619YS02001622        0.94      0.95      0.94      0.97         0.90
  YS02001622YS02001625        0.94      0.94      1.13      0.01         0.01
  YS02001625YS02001629        0.90      0.90      1.13      0.01         0.01
  YS02001629YS02163301        1.14      1.14      1.15      0.04         0.10
  YS02001633YS02163601        1.17      1.17      1.21      0.27         0.27
  YS02001641YS02001644        1.10      1.13      1.10      1.64         1.09
  YS02001644YS02001647        0.90      0.90      1.10      0.04         0.01
  YS02001647YS02001649        0.90      0.90      1.04      0.01         0.01
  YS02001649YS02001757        1.04      1.04      1.12      0.06         0.03
  YS02001652YS02001649        0.86      0.86      1.04      0.01         0.01
  YS02001655YS02001652        0.63      0.63      0.83      0.01         0.01
  YS02001658YS02001655        0.33      0.33      0.63      0.01         0.01
  YS02001661YS02001658        0.13      0.13      0.33      0.01         0.01
  YS02001664YS02001661        0.01      0.01      0.17      0.01         0.01
  YS02001745YS02001748        0.01      0.01      0.26      0.01         0.01
  YS02001748YS02001751        0.31      0.31      0.46      0.01         0.01
  YS02001751YS02001754        0.46      0.46      0.73      0.01         0.01
  YS02001754YS02001757        0.78      0.78      1.12      0.01         0.01
  YS02001757CaochengTiaoxuchi        1.09      1.12      1.56      0.43         0.37
  YS02001759YS02001757        1.02      1.02      1.12      0.07         0.07
  YS02001762YS02001759        0.99      0.99      1.02      0.01         0.02
  YS02001765YS02001762        0.94      0.94      0.99      0.01         0.01
  YS02001767YS02001765        0.89      0.89      0.94      0.01         0.02
  YS02001770YS02001767        0.89      0.89      0.89      0.64         0.56
  YS02001774YS02001770        0.87      0.87      0.97      0.01         0.01
  YS02001779YS02001774        0.72      0.72      0.97      0.01         0.01
  YS02001783YS02001784        0.63      0.66      0.63      0.80         0.63
  YS02001784YS02001785        0.52      0.63      0.52      1.05         0.52
  YS02001786YS02001788        0.01      0.52      0.01      0.89         0.01
  YS02001790YS02001791        0.01      0.01      0.01      0.62         0.01
  YS02001793JiankangQianchi        0.01      0.01      7.60      0.01         0.01
  YS02001882YS02001884        0.60      0.60      0.61      0.01         0.01
  YS02001884YS02001887        0.63      0.63      0.65      0.01         0.01
  YS02001887YS02001890        0.66      0.66      0.67      0.19         0.01
  YS02001890YS02001895        0.59      0.59      0.69      0.01         0.01
  YS02001895YS02001898        0.58      0.58      0.59      0.01         0.01
  YS02001898YS02001901        0.59      0.59      0.63      0.01         0.01
  YS02001901YS02001904        0.62      0.62      0.63      0.01         0.01
  YS02001904YS02001907        0.62      0.62      0.88      0.01         0.01
  YS02001907YS02006553        1.06      1.06      1.14      0.01         0.01
  YS02001910YS02001907        0.69      0.69      0.86      0.06         0.06
  YS02001915YS02001910        0.60      0.60      0.69      0.01         0.01
  YS02001918YS02001915        0.51      0.51      0.60      0.01         0.01
  YS02001920YS02001918        0.51      0.51      0.52      0.01         0.01
  YS02001923YS02001920        0.46      0.46      0.52      0.01         0.01
  YS02001926YS02001923        0.20      0.20      0.22      0.01         0.01
  YS02001929YS02001926        0.09      0.09      0.22      0.01         0.01
  YS02006553YS02006556        0.78      0.78      0.88      0.01         0.01
  YS02006556YS02006558        0.82      0.82      0.90      0.01         0.01
  YS02006558YS02006561        0.55      0.77      0.55      0.99         0.55
  YS02006561YS02001783        0.47      0.47      0.66      0.01         0.01
  YS02163301YS02001633        1.15      1.15      1.19      0.01         0.01
  YS02163601YS02164001        1.13      1.13      1.21      0.05         0.01
  YS02164001YS02001641        1.12      1.13      1.13      0.73         0.72
  
  
  ***************
  Pumping Summary
  ***************
  
  ---------------------------------------------------------------------------------------------------------
                                                  Min       Avg       Max     Total     Power    % Time Off
                        Percent   Number of      Flow      Flow      Flow    Volume     Usage    Pump Curve
  Pump                 Utilized   Start-Ups       LPS       LPS       LPS  10^6 ltr     Kw-hr    Low   High
  ---------------------------------------------------------------------------------------------------------
  CC-R1                   24.03           2      0.00    683.00    683.00     4.678     87.78    0.0   20.7
  CC-R2                   23.12           2      0.00    683.00    683.00     4.501     84.50    0.0   21.5
  CC-S1                   25.55           2      0.00    200.00    200.00     1.457      7.97    0.0    0.0
  CC-S2                   24.69           2      0.00    200.00    200.00     1.407      7.68    0.0    0.0
  JK-R1                    8.87           5      0.00   1000.00   1000.00     2.527     23.54    0.0    0.0
  JK-R2                    0.17           1      0.00   1000.00   1000.00     0.047      0.36    0.0    0.0
  JK-S                    22.77           3      0.00    300.00    300.00     1.947     31.71    0.0    0.0
  

  Analysis begun on:  Thu Jan 16 14:23:58 2025
  Analysis ended on:  Thu Jan 16 14:24:00 2025
  Total elapsed time: 00:00:02