
  EPA STORM WATER MANAGEMENT MODEL - VERSION 5.2 (Build 5.2.4)
  PYSWMM TOOLKIT API - VERSION v1.0 (2023-11-27)
  ------------------------------------------------------------

  WARNING 04: minimum elevation drop used for Conduit WS02004404WS02004405
  WARNING 03: negative offset ignored for Link YS02001904YS02001907
  
  ****************
  Analysis Options
  ****************
  Flow Units ............... LPS
  Process Models:
    Rainfall/Runoff ........ YES
    RDII ................... NO
    Snowmelt ............... NO
    Groundwater ............ NO
    Flow Routing ........... YES
    Ponding Allowed ........ NO
    Water Quality .......... NO
  Infiltration Method ...... HORTON
  Flow Routing Method ...... DYNWAVE
  Surcharge Method ......... EXTRAN
  Starting Date ............ 08/28/2015 08:00:00
  Ending Date .............. 08/28/2015 16:00:00
  Antecedent Dry Days ...... 8.0
  Report Time Step ......... 00:01:00
  Wet Time Step ............ 00:01:00
  Dry Time Step ............ 00:01:00
  Routing Time Step ........ 30.00 sec
  Variable Time Step ....... YES
  Maximum Trials ........... 8
  Number of Threads ........ 4
  Head Tolerance ........... 0.001500 m
  
  
  **************************        Volume         Depth
  Runoff Quantity Continuity     hectare-m            mm
  **************************     ---------       -------
  Total Precipitation ......         2.618        78.936
  Evaporation Loss .........         0.000         0.000
  Infiltration Loss ........         0.102         3.068
  Surface Runoff ...........         2.484        74.889
  Final Storage ............         0.033         0.997
  Continuity Error (%) .....        -0.022
  
  
  **************************        Volume        Volume
  Flow Routing Continuity        hectare-m      10^6 ltr
  **************************     ---------     ---------
  Dry Weather Inflow .......         0.025         0.248
  Wet Weather Inflow .......         2.484        24.842
  Groundwater Inflow .......         0.000         0.000
  RDII Inflow ..............         0.000         0.000
  External Inflow ..........         0.083         0.825
  External Outflow .........         1.678        16.776
  Flooding Loss ............         0.928         9.280
  Evaporation Loss .........         0.000         0.000
  Exfiltration Loss ........         0.000         0.000
  Initial Stored Volume ....         0.243         2.431
  Final Stored Volume ......         0.233         2.332
  Continuity Error (%) .....        -0.150
  
  
  *************************
  Highest Continuity Errors
  *************************
  Node YS02001583 (-5.04%)
  Node YS02001884 (4.90%)
  
  
  ***************************
  Time-Step Critical Elements
  ***************************
  Link WS02004404WS02004405 (34.92%)
  Link YS02001791YS02001793 (14.98%)
  Link YS02006556YS02006558 (9.14%)
  Link WS02006238WS02006235 (9.07%)
  Link WS02006252WS02006251 (8.33%)
  
  
  ********************************
  Highest Flow Instability Indexes
  ********************************
  Link WS02006113WS02006111 (31)
  Link WS02006252WS02006251 (30)
  Link WS02006238WS02006235 (28)
  Link WS02006111WS02006112 (25)
  Link WS02006235WS02006234 (21)
  
  
  *********************************
  Most Frequent Nonconverging Nodes
  *********************************
  Node CC-1 (14.13%)
  Node CC-2 (14.13%)
  Node JK-1 (14.13%)
  Node JK-2 (14.13%)
  Node WSC (14.13%)
  
  
  *************************
  Routing Time Step Summary
  *************************
  Minimum Time Step           :     0.01 sec
  Average Time Step           :     3.39 sec
  Maximum Time Step           :     6.43 sec
  % of Time in Steady State   :     0.00
  Average Iterations per Step :     3.50
  % of Steps Not Converging   :    14.13
  Time Step Frequencies       :
     30.000 - 13.228 sec      :     0.00 %
     13.228 -  5.833 sec      :    23.18 %
      5.833 -  2.572 sec      :    27.92 %
      2.572 -  1.134 sec      :    38.24 %
      1.134 -  0.500 sec      :    10.66 %
  
  
  ***************************
  Subcatchment Runoff Summary
  ***************************
  
  ------------------------------------------------------------------------------------------------------------------------------
                            Total      Total      Total      Total     Imperv       Perv      Total       Total     Peak  Runoff
                           Precip      Runon       Evap      Infil     Runoff     Runoff     Runoff      Runoff   Runoff   Coeff
  Subcatchment                 mm         mm         mm         mm         mm         mm         mm    10^6 ltr      LPS
  ------------------------------------------------------------------------------------------------------------------------------
  sub60                     78.94       0.00       0.00       1.85      68.26       7.62      75.88        1.00   636.29   0.961
  sub61                     78.94       0.00       0.00       2.69      64.39      10.74      75.13        1.38   882.47   0.952
  sub62                     78.94       0.00       0.00       1.24      71.34       5.08      76.42        2.09  1237.12   0.968
  sub63                     78.94       0.00       0.00       4.94      55.08      17.96      73.04        1.66   983.88   0.925
  sub64                     78.94       0.00       0.00       2.50      65.89       9.35      75.24        1.81  1011.46   0.953
  sub65                     78.94       0.00       0.00       2.16      67.42       8.10      75.52        2.08  1129.31   0.957
  sub66                     78.94       0.00       0.00       6.07      54.97      16.82      71.79        3.35  1478.92   0.909
  sub67                     78.94       0.00       0.00       1.19      71.38       5.13      76.51        1.42   953.79   0.969
  sub68                     78.94       0.00       0.00       2.22      66.70       8.83      75.53        2.08  1268.46   0.957
  sub69                     78.94       0.00       0.00       1.99      66.98       9.86      76.84        2.84  1502.91   0.973
  sub70                     78.94       0.00       0.00       6.57      51.93      20.27      72.20        2.09   832.63   0.915
  sub71                     78.94       0.00       0.00       1.27      71.29       5.05      76.34        2.00  1094.05   0.967
  sub72                     78.94       0.00       0.00       1.13      72.01       4.40      76.41        1.05   529.80   0.968
  
  
  ******************
  Node Depth Summary
  ******************
  
  ---------------------------------------------------------------------------------
                                 Average  Maximum  Maximum  Time of Max    Reported
                                   Depth    Depth      HGL   Occurrence   Max Depth
  Node                 Type       Meters   Meters   Meters  days hr:min      Meters
  ---------------------------------------------------------------------------------
  WS02003060           JUNCTION     0.21     0.38     5.32     0  02:49        0.38
  WS02003066           JUNCTION     0.17     0.30     5.85     0  02:48        0.30
  WS02003067           JUNCTION     0.46     0.70     6.02     0  02:48        0.70
  WS02003069           JUNCTION     0.23     0.43     5.01     0  02:49        0.43
  WS02003072           JUNCTION     0.29     0.50     4.87     0  02:50        0.50
  WS02003073           JUNCTION     0.16     0.30     4.36     0  02:51        0.30
  WS02004401           JUNCTION     0.55     0.85     6.85     0  02:43        0.85
  WS02004402           JUNCTION     0.58     0.88     6.84     0  02:45        0.88
  WS02004403           JUNCTION     0.60     0.89     6.82     0  02:46        0.89
  WS02004404           JUNCTION     0.68     0.96     6.81     0  02:46        0.96
  WS02004405           JUNCTION     0.67     0.96     6.81     0  02:46        0.96
  WS02004406           JUNCTION     0.68     0.96     6.79     0  02:46        0.96
  WS02004407           JUNCTION     0.15     0.30     6.61     0  02:46        0.30
  WS02004409           JUNCTION     0.34     0.67     6.44     0  02:46        0.67
  WS02004410           JUNCTION     0.37     0.68     6.40     0  02:47        0.68
  WS02004411           JUNCTION     0.39     0.69     6.37     0  02:47        0.69
  WS02004412           JUNCTION     0.42     0.70     6.34     0  02:47        0.70
  WS02004413           JUNCTION     0.57     0.86     6.33     0  02:48        0.86
  WS02006109           JUNCTION     0.62     1.05     7.67     0  03:31        0.98
  WS02006110           JUNCTION     0.61     1.03     7.62     0  03:31        0.93
  WS02006111           JUNCTION     0.16     0.29     6.99     0  02:38        0.29
  WS02006112           JUNCTION     0.70     1.06     6.95     0  02:32        1.06
  WS02006113           JUNCTION     0.24     0.46     7.35     0  02:49        0.46
  WS02006115           JUNCTION     0.44     0.75     6.89     0  02:42        0.75
  WS02006116           JUNCTION     0.52     0.83     6.87     0  02:45        0.83
  WS02006228           JUNCTION     0.61     1.07     7.73     0  03:31        1.05
  WS02006229           JUNCTION     0.59     1.10     7.79     0  03:31        1.06
  WS02006230           JUNCTION     0.60     1.24     7.99     0  03:31        1.18
  WS02006231           JUNCTION     0.40     0.95     8.07     0  03:31        0.92
  WS02006232           JUNCTION     0.54     1.12     8.16     0  03:31        1.11
  WS02006234           JUNCTION     0.48     1.13     8.29     0  03:31        1.11
  WS02006235           JUNCTION     0.52     1.23     8.39     0  03:31        1.18
  WS02006238           JUNCTION     0.55     1.26     8.40     0  03:31        1.21
  WS02006239           JUNCTION     0.51     1.25     8.46     0  03:31        1.19
  WS02006240           JUNCTION     0.49     1.23     8.52     0  03:31        1.23
  WS02006242           JUNCTION     0.54     1.38     8.65     0  03:31        1.38
  WS02006243           JUNCTION     0.47     1.33     8.75     0  03:31        1.33
  WS02006245           JUNCTION     0.47     1.30     8.79     0  03:31        1.30
  WS02006247           JUNCTION     0.48     1.27     8.77     0  03:31        1.27
  WS02006248           JUNCTION     0.45     1.10     8.69     0  03:31        1.10
  WS02006249           JUNCTION     0.47     1.09     8.69     0  01:48        1.09
  WS02006251           JUNCTION     0.47     1.37     9.04     0  01:49        1.20
  WS02006252           JUNCTION     0.32     1.50     9.74     0  00:00        0.76
  WS02006256           JUNCTION     1.22     2.35     9.28     0  00:00        2.35
  WSF200               JUNCTION     0.14     0.29     5.52     0  02:48        0.29
  YS02001580           JUNCTION     0.18     1.05     9.59     0  01:42        0.77
  YS02001583           JUNCTION     0.22     1.14     9.64     0  01:42        0.82
  YS02001586           JUNCTION     0.33     1.13     9.30     0  01:42        1.13
  YS02001590           JUNCTION     0.46     1.40     9.26     0  01:42        1.37
  YS02001593           JUNCTION     0.39     1.33     9.19     0  01:42        1.30
  YS02001596           JUNCTION     0.53     1.69     9.10     0  01:42        1.65
  YS02001600           JUNCTION     0.63     1.87     9.00     0  01:41        1.87
  YS02001601           JUNCTION     0.82     2.06     8.90     0  01:41        2.06
  YS02001602           JUNCTION     0.72     1.87     8.77     0  01:42        1.87
  YS02001605           JUNCTION     0.67     1.78     8.68     0  01:42        1.78
  YS02001607           JUNCTION     0.63     1.68     8.53     0  01:42        1.65
  YS02001610           JUNCTION     0.67     1.68     8.48     0  01:42        1.68
  YS02001613           JUNCTION     0.63     1.70     8.54     0  01:42        1.67
  YS02001616           JUNCTION     0.56     1.61     8.52     0  01:42        1.61
  YS02001619           JUNCTION     0.54     1.61     8.54     0  01:42        1.60
  YS02001622           JUNCTION     0.53     1.62     8.52     0  01:42        1.57
  YS02001625           JUNCTION     0.78     1.78     8.38     0  01:42        1.78
  YS02001629           JUNCTION     0.68     1.85     8.40     0  01:42        1.85
  YS02001633           JUNCTION     0.76     2.02     8.48     0  01:48        2.01
  YS02001641           JUNCTION     0.72     1.95     8.39     0  01:48        1.94
  YS02001644           JUNCTION     0.71     1.92     8.35     0  01:46        1.92
  YS02001647           JUNCTION     0.50     1.81     8.42     0  01:46        1.75
  YS02001649           JUNCTION     0.57     2.04     8.43     0  01:47        1.98
  YS02001652           JUNCTION     0.44     1.96     8.55     0  01:47        1.83
  YS02001655           JUNCTION     0.34     1.97     8.82     0  01:46        1.63
  YS02001658           JUNCTION     0.25     1.98     9.12     0  01:46        1.43
  YS02001661           JUNCTION     0.23     1.49     8.90     0  01:47        1.40
  YS02001664           JUNCTION     0.09     0.82     8.75     0  01:47        0.66
  YS02001745           JUNCTION     0.12     1.36     8.88     0  01:47        0.97
  YS02001748           JUNCTION     0.24     1.92     9.00     0  01:46        1.35
  YS02001751           JUNCTION     0.30     1.84     8.72     0  01:46        1.50
  YS02001754           JUNCTION     0.40     1.91     8.52     0  01:46        1.72
  YS02001757           JUNCTION     0.59     2.09     8.35     0  01:47        2.03
  YS02001759           JUNCTION     0.53     2.06     8.43     0  01:47        2.05
  YS02001762           JUNCTION     0.52     2.09     8.49     0  01:45        2.05
  YS02001765           JUNCTION     0.49     2.10     8.55     0  01:45        2.02
  YS02001767           JUNCTION     0.49     2.03     8.52     0  01:45        1.98
  YS02001770           JUNCTION     0.50     1.95     8.44     0  01:45        1.95
  YS02001774           JUNCTION     0.56     2.05     8.47     0  01:45        2.01
  YS02001779           JUNCTION     0.38     1.68     8.37     0  01:45        1.68
  YS02001783           JUNCTION     0.36     1.62     7.76     0  01:45        1.24
  YS02001784           JUNCTION     0.36     1.33     7.40     0  01:45        1.11
  YS02001786           JUNCTION     0.30     1.15     7.18     0  01:45        0.87
  YS02001788           JUNCTION     0.22     0.62     6.60     0  01:47        0.62
  YS02001790           JUNCTION     0.26     0.73     6.37     0  01:50        0.72
  YS02001791           JUNCTION     0.16     0.44     5.91     0  01:47        0.43
  YS02001793           JUNCTION     0.08     0.29     5.12     0  01:48        0.29
  YS02001882           JUNCTION     0.45     1.83     8.55     0  01:43        1.68
  YS02001884           JUNCTION     0.53     1.92     8.54     0  01:43        1.77
  YS02001887           JUNCTION     0.61     1.94     8.47     0  01:43        1.85
  YS02001890           JUNCTION     0.64     1.81     8.32     0  01:43        1.81
  YS02001895           JUNCTION     0.41     1.75     8.50     0  01:43        1.57
  YS02001898           JUNCTION     0.42     1.75     8.49     0  01:43        1.57
  YS02001901           JUNCTION     0.53     1.81     8.42     0  01:43        1.68
  YS02001904           JUNCTION     0.51     1.67     8.30     0  01:43        1.64
  YS02001907           JUNCTION     0.82     1.96     8.25     0  01:44        1.96
  YS02001910           JUNCTION     0.63     2.10     8.61     0  01:43        1.96
  YS02001915           JUNCTION     0.45     2.00     8.72     0  01:43        1.90
  YS02001918           JUNCTION     0.28     1.81     8.88     0  01:44        1.81
  YS02001920           JUNCTION     0.35     2.14     9.15     0  01:45        1.80
  YS02001923           JUNCTION     0.21     2.03     9.29     0  01:45        1.50
  YS02001926           JUNCTION     0.24     1.90     9.35     0  01:45        1.31
  YS02001929           JUNCTION     0.14     1.78     9.47     0  01:45        1.10
  YS02006553           JUNCTION     0.82     2.08     8.36     0  01:45        1.97
  YS02006556           JUNCTION     0.79     2.17     8.48     0  01:45        1.97
  YS02006558           JUNCTION     0.83     2.24     8.50     0  01:45        2.02
  YS02006561           JUNCTION     0.23     1.47     8.13     0  01:45        0.91
  YS02163301           JUNCTION     0.70     1.92     8.44     0  01:48        1.92
  YS02163601           JUNCTION     0.78     2.03     8.43     0  01:46        2.02
  YS02164001           JUNCTION     0.71     1.95     8.40     0  01:46        1.94
  CC-1                 OUTFALL      0.00     0.00     0.00     0  00:00        0.00
  CC-2                 OUTFALL      0.00     0.00     0.00     0  00:00        0.00
  JK-1                 OUTFALL      0.00     0.00     0.00     0  00:00        0.00
  JK-2                 OUTFALL      0.00     0.00     0.00     0  00:00        0.00
  WSC                  OUTFALL      0.16     0.30     0.97     0  02:51        0.30
  CC-storage           STORAGE      0.96     1.81     7.31     0  02:26        1.81
  JK-storage           STORAGE      2.48     4.24     5.04     0  01:48        4.20
  
  
  *******************
  Node Inflow Summary
  *******************
  
  -------------------------------------------------------------------------------------------------
                                  Maximum  Maximum                  Lateral       Total        Flow
                                  Lateral    Total  Time of Max      Inflow      Inflow     Balance
                                   Inflow   Inflow   Occurrence      Volume      Volume       Error
  Node                 Type           LPS      LPS  days hr:min    10^6 ltr    10^6 ltr     Percent
  -------------------------------------------------------------------------------------------------
  WS02003060           JUNCTION     16.53   553.48     0  02:48       0.471        4.48       0.043
  WS02003066           JUNCTION      0.00   536.86     0  02:48           0        4.01       0.031
  WS02003067           JUNCTION      0.00   536.83     0  02:48           0        4.02       0.099
  WS02003069           JUNCTION      0.32   553.75     0  02:49     0.00912        4.49       0.076
  WS02003072           JUNCTION      0.00   553.57     0  02:50           0        4.49       0.140
  WS02003073           JUNCTION      1.82   555.24     0  02:50      0.0519        4.53       0.107
  WS02004401           JUNCTION      0.00   538.80     0  02:45           0        4.11       0.241
  WS02004402           JUNCTION      0.00   538.51     0  02:39           0         4.1       0.245
  WS02004403           JUNCTION      0.00   538.17     0  02:39           0        4.09       0.241
  WS02004404           JUNCTION      0.16   538.13     0  02:39     0.00462        4.09       0.205
  WS02004405           JUNCTION      0.04   538.15     0  02:40     0.00109        4.08       0.293
  WS02004406           JUNCTION      0.00   538.20     0  02:40           0        4.07       0.504
  WS02004407           JUNCTION      0.00   537.79     0  02:46           0        4.05       0.022
  WS02004409           JUNCTION      0.00   537.53     0  02:46           0        4.05       0.052
  WS02004410           JUNCTION      0.00   537.37     0  02:44           0        4.05       0.096
  WS02004411           JUNCTION      0.00   537.22     0  02:47           0        4.04       0.126
  WS02004412           JUNCTION      0.00   537.10     0  02:47           0        4.04       0.172
  WS02004413           JUNCTION      0.00   537.05     0  02:47           0        4.03       0.316
  WS02006109           JUNCTION      1.23   548.93     0  03:31      0.0351        4.16       0.222
  WS02006110           JUNCTION      0.00   549.18     0  03:31           0        4.15       0.153
  WS02006111           JUNCTION      0.00   560.64     0  03:06           0        4.14       0.017
  WS02006112           JUNCTION      0.00   543.14     0  02:42           0        4.14       0.483
  WS02006113           JUNCTION      0.00   557.28     0  01:50           0        4.15       0.038
  WS02006115           JUNCTION      0.00   548.11     0  02:38           0        4.12       0.151
  WS02006116           JUNCTION      0.00   539.38     0  02:43           0        4.12       0.071
  WS02006228           JUNCTION      0.00   546.97     0  03:31           0        4.13       0.087
  WS02006229           JUNCTION      0.00   546.78     0  03:31           0        4.13       0.103
  WS02006230           JUNCTION     10.28   580.68     0  03:30       0.293        4.14       0.137
  WS02006231           JUNCTION      0.00   570.50     0  03:30           0        3.85      -0.044
  WS02006232           JUNCTION      0.00   569.41     0  03:30           0        3.85       0.173
  WS02006234           JUNCTION      0.00   565.28     0  03:30           0        3.85      -0.140
  WS02006235           JUNCTION      0.00   560.27     0  03:31           0        3.89       0.161
  WS02006238           JUNCTION      0.00   419.57     0  03:08           0        2.67      -0.120
  WS02006239           JUNCTION      0.00   419.78     0  03:08           0        2.65      -0.095
  WS02006240           JUNCTION      0.00   417.97     0  03:08           0        2.62      -0.059
  WS02006242           JUNCTION      0.00   418.51     0  03:08           0        2.61      -0.040
  WS02006243           JUNCTION      0.00   417.87     0  03:08           0        2.59      -0.147
  WS02006245           JUNCTION      0.00   416.76     0  03:08           0        2.59       0.162
  WS02006247           JUNCTION      0.00   416.71     0  03:08           0        2.59       0.013
  WS02006248           JUNCTION      0.00   416.69     0  03:08           0         2.6       0.067
  WS02006249           JUNCTION      0.00   459.02     0  00:00           0        2.97       0.183
  WS02006251           JUNCTION      0.08   406.95     0  01:49     0.00219        2.97      -0.047
  WS02006252           JUNCTION      0.00   400.00     0  00:00           0        2.97       0.007
  WS02006256           JUNCTION      0.00   300.00     0  00:00           0        1.85      -0.130
  WSF200               JUNCTION      0.00   536.90     0  02:48           0        4.01       0.007
  YS02001580           JUNCTION      0.00   129.23     0  01:42           0     0.00452       1.631
  YS02001583           JUNCTION      0.00   187.82     0  01:42           0      0.0155      -4.798
  YS02001586           JUNCTION    832.63   832.64     0  01:53        2.09         2.1       0.061
  YS02001590           JUNCTION      0.00   318.62     0  02:15           0        1.53      -0.025
  YS02001593           JUNCTION      0.00   318.19     0  02:16           0        1.53      -0.014
  YS02001596           JUNCTION      0.00   318.06     0  01:54           0        1.53      -0.017
  YS02001600           JUNCTION      0.00   318.07     0  02:15           0        1.53       0.000
  YS02001601           JUNCTION   1502.91  1820.49     0  01:51        2.84        4.38       0.007
  YS02001602           JUNCTION      0.00   529.77     0  01:42           0        2.53       0.009
  YS02001605           JUNCTION      0.00   529.51     0  01:42           0        2.37       0.013
  YS02001607           JUNCTION      0.00   529.21     0  01:42           0        2.37       0.074
  YS02001610           JUNCTION      0.00   832.75     0  01:53           0        2.74       0.070
  YS02001613           JUNCTION      0.00   546.78     0  01:41           0        2.14       0.071
  YS02001616           JUNCTION      0.00   549.58     0  01:41           0        2.14       0.014
  YS02001619           JUNCTION   1478.92  1478.92     0  01:53        3.35        5.11      -0.007
  YS02001622           JUNCTION      0.00   990.71     0  01:52           0        4.73      -0.005
  YS02001625           JUNCTION      0.00  1407.12     0  01:54           0        5.02       0.177
  YS02001629           JUNCTION      0.00   928.95     0  01:42           0        3.74       0.008
  YS02001633           JUNCTION   1129.51  1380.52     0  01:44        2.08        5.45       0.055
  YS02001641           JUNCTION      0.00  1380.28     0  01:44           0        5.09       0.047
  YS02001644           JUNCTION   1011.50  1803.72     0  01:44        1.81        6.89       0.042
  YS02001647           JUNCTION      0.00  1803.21     0  01:44           0        6.15       0.005
  YS02001649           JUNCTION      0.00  2040.54     0  01:44           0        7.81       0.003
  YS02001652           JUNCTION      0.00  1010.94     0  01:50           0        1.66      -0.053
  YS02001655           JUNCTION      0.15  1010.60     0  01:50     0.00439        1.66      -0.109
  YS02001658           JUNCTION      0.00  1009.95     0  01:50           0        1.67      -0.041
  YS02001661           JUNCTION      0.00  1008.98     0  01:50           0        1.67       0.021
  YS02001664           JUNCTION    983.88   983.88     0  01:50        1.66        1.66      -0.011
  YS02001745           JUNCTION    636.30   636.30     0  01:50       0.997           1       0.153
  YS02001748           JUNCTION      0.04   652.74     0  01:50     0.00128           1      -0.292
  YS02001751           JUNCTION      0.01   653.48     0  01:50    0.000313        1.01       0.039
  YS02001754           JUNCTION      0.26   653.90     0  01:50     0.00741        1.02      -0.159
  YS02001757           JUNCTION      0.00  3381.94     0  01:47           0          12       0.020
  YS02001759           JUNCTION    882.51  1400.66     0  01:49        1.38        3.14      -0.016
  YS02001762           JUNCTION      0.00   776.59     0  01:46           0        1.76      -0.012
  YS02001765           JUNCTION      0.00   776.31     0  01:46           0        1.76       0.001
  YS02001767           JUNCTION      0.54   775.06     0  01:46      0.0152        1.76      -0.003
  YS02001770           JUNCTION   1237.28  1237.28     0  01:51         2.1        2.14      -0.039
  YS02001774           JUNCTION      0.00   749.81     0  01:50           0       0.423       0.244
  YS02001779           JUNCTION      0.01   749.85     0  01:50    0.000142       0.377      -0.181
  YS02001783           JUNCTION      0.00  1168.78     0  01:48           0        4.65       0.003
  YS02001784           JUNCTION      1.06  1170.23     0  01:48      0.0302        4.68       0.010
  YS02001786           JUNCTION      0.06  1170.17     0  01:48      0.0016        4.68       0.015
  YS02001788           JUNCTION      0.07  1170.24     0  01:48     0.00202        4.68       0.007
  YS02001790           JUNCTION      0.15  1177.74     0  01:47     0.00442        4.68       0.025
  YS02001791           JUNCTION      0.00  1296.78     0  01:49           0        4.68      -0.027
  YS02001793           JUNCTION      0.00  1251.77     0  01:50           0        4.68       0.003
  YS02001882           JUNCTION      0.00    66.41     0  01:43           0      0.0125       4.463
  YS02001884           JUNCTION      0.00    75.06     0  01:42           0      0.0483       5.152
  YS02001887           JUNCTION    954.24   954.24     0  01:50        1.44        1.47       0.292
  YS02001890           JUNCTION      0.00   954.84     0  01:49           0        1.43       0.341
  YS02001895           JUNCTION      0.00   517.62     0  01:55           0        1.25       0.142
  YS02001898           JUNCTION      0.00   517.98     0  01:54           0        1.25      -0.003
  YS02001901           JUNCTION      0.00   518.22     0  01:54           0        1.25       0.260
  YS02001904           JUNCTION      0.00   517.85     0  01:54           0        1.26       0.207
  YS02001907           JUNCTION      0.00  2251.33     0  01:50           0         4.4       0.400
  YS02001910           JUNCTION      0.00  1627.04     0  01:50           0        3.13       0.227
  YS02001915           JUNCTION   1094.07  1627.00     0  01:50           2        3.17       0.042
  YS02001918           JUNCTION      0.00   538.79     0  01:50           0        1.21       0.009
  YS02001920           JUNCTION      2.87   538.89     0  01:50      0.0818        1.19       0.071
  YS02001923           JUNCTION      0.04   536.52     0  01:52     0.00107        1.09      -0.125
  YS02001926           JUNCTION      0.05   651.91     0  01:45     0.00149        1.07      -0.054
  YS02001929           JUNCTION    529.80   529.80     0  01:52        1.05        1.05      -0.036
  YS02006553           JUNCTION      0.00   793.87     0  02:13           0        2.63       0.447
  YS02006556           JUNCTION      0.00   794.45     0  02:12           0        2.64       0.295
  YS02006558           JUNCTION   1269.34  1269.34     0  01:50         2.1         4.7       0.067
  YS02006561           JUNCTION      0.00  1180.24     0  01:45           0        4.65       0.003
  YS02163301           JUNCTION      0.00   925.40     0  01:44           0        3.73       0.029
  YS02163601           JUNCTION      0.11  1380.61     0  01:44     0.00313        5.08       0.089
  YS02164001           JUNCTION      0.00  1380.59     0  01:44           0        5.08       0.035
  CC-1                 OUTFALL       0.00   683.00     0  00:00           0        4.82       0.000
  CC-2                 OUTFALL       0.00   683.00     0  00:00           0        4.65       0.000
  JK-1                 OUTFALL       0.00  1000.00     0  00:00           0        2.73       0.000
  JK-2                 OUTFALL       0.00  1000.00     0  00:00           0      0.0484       0.000
  WSC                  OUTFALL       0.00   555.12     0  02:51           0        4.53       0.000
  CC-storage           STORAGE       0.00  3381.80     0  01:47           0        14.2      -0.148
  JK-storage           STORAGE       0.00  1263.78     0  01:53           0        4.83       0.172
  
  
  **********************
  Node Surcharge Summary
  **********************
  
  Surcharging occurs when water rises above the top of the highest conduit.
  ---------------------------------------------------------------------
                                               Max. Height   Min. Depth
                                   Hours       Above Crown    Below Rim
  Node                 Type      Surcharged         Meters       Meters
  ---------------------------------------------------------------------
  WS02006109           JUNCTION        1.90          0.228        1.592
  WS02006110           JUNCTION        1.41          0.122        1.728
  WS02006112           JUNCTION        1.36          0.064        1.616
  WS02006228           JUNCTION        1.90          0.245        1.955
  WS02006229           JUNCTION        1.90          0.296        2.154
  WS02006230           JUNCTION        1.41          0.161        1.409
  WS02006231           JUNCTION        1.45          0.238        1.292
  WS02006232           JUNCTION        1.91          0.423        1.057
  WS02006234           JUNCTION        1.55          0.412        0.828
  WS02006235           JUNCTION        1.90          0.518        0.772
  WS02006238           JUNCTION        1.91          0.541        0.889
  WS02006239           JUNCTION        1.88          0.506        0.784
  WS02006240           JUNCTION        1.87          0.516        0.874
  WS02006242           JUNCTION        1.87          0.652        0.168
  WS02006243           JUNCTION        1.86          0.621        0.149
  WS02006245           JUNCTION        1.85          0.594        0.256
  WS02006247           JUNCTION        1.85          0.558        0.202
  WS02006248           JUNCTION        1.84          0.380        0.000
  WS02006249           JUNCTION        1.83          0.390        0.000
  WS02006251           JUNCTION        1.44          0.340        0.840
  WS02006252           JUNCTION        2.02          1.100        0.000
  WS02006256           JUNCTION        3.18          2.050        0.000
  YS02001580           JUNCTION        0.78          0.450        0.000
  YS02001583           JUNCTION        0.79          0.500        0.000
  YS02001586           JUNCTION        0.96          0.510        0.000
  YS02001590           JUNCTION        1.05          0.750        0.000
  YS02001593           JUNCTION        1.05          0.707        0.133
  YS02001596           JUNCTION        1.19          0.955        0.115
  YS02001600           JUNCTION        1.37          1.190        0.000
  YS02001601           JUNCTION        1.65          1.440        0.000
  YS02001602           JUNCTION        1.57          1.270        0.000
  YS02001605           JUNCTION        1.53          1.180        0.000
  YS02001607           JUNCTION        1.06          0.680        0.000
  YS02001610           JUNCTION        1.09          0.680        0.000
  YS02001613           JUNCTION        1.06          0.700        0.000
  YS02001616           JUNCTION        1.01          0.610        0.000
  YS02001619           JUNCTION        1.00          0.610        0.000
  YS02001622           JUNCTION        1.00          0.620        0.000
  YS02001625           JUNCTION        1.20          0.780        0.000
  YS02001629           JUNCTION        0.94          0.470        0.000
  YS02001633           JUNCTION        1.24          1.004        0.056
  YS02001641           JUNCTION        1.19          0.949        0.151
  YS02001644           JUNCTION        1.17          0.920        0.000
  YS02001647           JUNCTION        0.94          0.807        0.093
  YS02001649           JUNCTION        1.10          1.036        0.014
  YS02001652           JUNCTION        0.86          0.926        0.204
  YS02001655           JUNCTION        0.64          0.966        0.234
  YS02001658           JUNCTION        0.32          0.983        0.317
  YS02001661           JUNCTION        0.10          0.423        0.967
  YS02001745           JUNCTION        0.01          0.364        0.986
  YS02001748           JUNCTION        0.24          0.841        0.349
  YS02001751           JUNCTION        0.47          0.838        0.362
  YS02001754           JUNCTION        0.76          0.863        0.287
  YS02001757           JUNCTION        1.18          1.093        0.117
  YS02001759           JUNCTION        1.08          1.063        0.147
  YS02001762           JUNCTION        1.04          1.087        0.063
  YS02001765           JUNCTION        0.98          1.100        0.000
  YS02001767           JUNCTION        0.95          1.030        0.000
  YS02001770           JUNCTION        0.91          0.920        0.000
  YS02001774           JUNCTION        1.02          1.050        0.000
  YS02001779           JUNCTION        0.74          0.680        0.000
  YS02001783           JUNCTION        0.66          0.818        0.782
  YS02001784           JUNCTION        0.64          0.529        0.961
  YS02001786           JUNCTION        0.52          0.351        1.079
  YS02001882           JUNCTION        0.60          0.830        0.000
  YS02001884           JUNCTION        0.61          0.861        0.009
  YS02001887           JUNCTION        0.65          0.886        0.064
  YS02001890           JUNCTION        0.67          0.760        0.000
  YS02001895           JUNCTION        0.59          0.750        0.000
  YS02001898           JUNCTION        0.58          0.723        0.017
  YS02001901           JUNCTION        0.64          0.810        0.060
  YS02001904           JUNCTION        0.63          0.672        0.178
  YS02001907           JUNCTION        0.90          0.950        0.000
  YS02001910           JUNCTION        0.70          1.100        0.000
  YS02001915           JUNCTION        0.60          1.000        0.000
  YS02001918           JUNCTION        0.50          0.810        0.000
  YS02001920           JUNCTION        0.52          1.140        0.000
  YS02001923           JUNCTION        0.17          0.820        0.000
  YS02001926           JUNCTION        0.20          0.900        0.000
  YS02001929           JUNCTION        0.01          0.780        0.000
  YS02006553           JUNCTION        0.93          1.076        0.114
  YS02006556           JUNCTION        0.80          1.126        0.224
  YS02006558           JUNCTION        0.78          1.136        0.264
  YS02006561           JUNCTION        0.47          0.668        0.482
  YS02163301           JUNCTION        1.22          0.924        0.106
  YS02163601           JUNCTION        1.28          1.032        0.048
  YS02164001           JUNCTION        1.19          0.945        0.155
  
  
  *********************
  Node Flooding Summary
  *********************
  
  Flooding refers to all water that overflows a node, whether it ponds or not.
  --------------------------------------------------------------------------
                                                             Total   Maximum
                                 Maximum   Time of Max       Flood    Ponded
                        Hours       Rate    Occurrence      Volume     Depth
  Node                 Flooded       LPS   days hr:min    10^6 ltr    Meters
  --------------------------------------------------------------------------
  WS02006248              0.01      5.45      0  03:31       0.000     0.000
  WS02006249              1.44    100.42      0  01:49       0.366     0.000
  WS02006252              0.01    245.63      0  00:00       0.000     0.000
  WS02006256              1.71    293.19      0  00:00       0.600     0.000
  YS02001580              0.01    114.06      0  01:42       0.000     0.000
  YS02001583              0.01    130.53      0  01:42       0.000     0.000
  YS02001586              0.63    515.08      0  01:53       0.551     0.000
  YS02001590              0.01      3.66      0  01:42       0.000     0.000
  YS02001600              0.01      4.81      0  01:41       0.000     0.000
  YS02001601              0.88   1422.59      0  01:51       1.851     0.000
  YS02001602              0.79     61.99      0  02:15       0.158     0.000
  YS02001605              0.01      5.41      0  01:42       0.000     0.000
  YS02001607              0.01      9.25      0  01:42       0.000     0.000
  YS02001610              0.68    832.64      0  01:53       0.982     0.000
  YS02001613              0.01     29.58      0  01:42       0.000     0.000
  YS02001616              0.01     29.43      0  01:42       0.000     0.000
  YS02001619              0.01     86.78      0  01:42       0.000     0.000
  YS02001622              0.01     92.94      0  01:42       0.000     0.000
  YS02001625              0.66   1406.99      0  01:54       1.637     0.000
  YS02001629              0.16    295.97      0  01:49       0.087     0.000
  YS02001644              0.27   1365.87      0  01:50       0.730     0.000
  YS02001765              0.01     38.52      0  01:45       0.000     0.000
  YS02001767              0.01     25.47      0  01:45       0.000     0.000
  YS02001770              0.01    152.01      0  01:45       0.000     0.000
  YS02001774              0.01     94.88      0  01:45       0.000     0.000
  YS02001779              0.24    749.65      0  01:50       0.357     0.000
  YS02001882              0.01     36.95      0  01:43       0.000     0.000
  YS02001890              0.21    440.14      0  01:49       0.171     0.000
  YS02001895              0.01     33.53      0  01:43       0.000     0.000
  YS02001907              0.44   2250.85      0  01:50       1.780     0.000
  YS02001910              0.01     44.81      0  01:43       0.000     0.000
  YS02001915              0.01    133.98      0  01:43       0.000     0.000
  YS02001918              0.01    251.64      0  01:45       0.003     0.000
  YS02001920              0.01     81.82      0  01:45       0.000     0.000
  YS02001923              0.01    156.92      0  01:45       0.001     0.000
  YS02001926              0.01    560.62      0  01:45       0.002     0.000
  YS02001929              0.01    236.53      0  01:45       0.001     0.000
  
  
  **********************
  Storage Volume Summary
  **********************
  
  ------------------------------------------------------------------------------------------------
                         Average    Avg   Evap  Exfil     Maximum    Max    Time of Max    Maximum
                          Volume   Pcnt   Pcnt   Pcnt      Volume   Pcnt     Occurrence    Outflow
  Storage Unit           1000 m³   Full   Loss   Loss     1000 m³   Full    days hr:min        LPS
  ------------------------------------------------------------------------------------------------
  CC-storage               2.684   41.9    0.0    0.0       5.033   78.5       0  02:26    1783.53
  JK-storage               0.125   42.7    0.0    0.0       0.213   73.1       0  01:48    2300.00
  
  
  ***********************
  Outfall Loading Summary
  ***********************
  
  -----------------------------------------------------------
                         Flow       Avg       Max       Total
                         Freq      Flow      Flow      Volume
  Outfall Node           Pcnt       LPS       LPS    10^6 ltr
  -----------------------------------------------------------
  CC-1                  41.02    683.00    683.00       4.824
  CC-2                  39.36    683.00    683.00       4.646
  JK-1                  20.71   1000.00   1000.00       2.728
  JK-2                   0.25   1000.00   1000.00       0.048
  WSC                   99.93    232.80    555.12       4.529
  -----------------------------------------------------------
  System                40.25   3598.80   3366.23      16.776
  
  
  ********************
  Link Flow Summary
  ********************
  
  -----------------------------------------------------------------------------
                                 Maximum  Time of Max   Maximum    Max/    Max/
                                  |Flow|   Occurrence   |Veloc|    Full    Full
  Link                 Type          LPS  days hr:min     m/sec    Flow   Depth
  -----------------------------------------------------------------------------
  1                    CONDUIT    555.12     0  02:51      2.83    0.19    0.30
  WS02003060WS02003069 CONDUIT    553.43     0  02:49      1.64    0.22    0.34
  WS02003066WSF200     CONDUIT    536.90     0  02:48      2.85    0.09    0.22
  WS02003067WS02003066 CONDUIT    536.86     0  02:48      1.21    0.17    0.42
  WS02003069WS02003072 CONDUIT    553.57     0  02:50      1.37    0.27    0.39
  WS02003072WS02003073 CONDUIT    553.42     0  02:50      1.44    1.20    0.37
  WS02004401WS02004402 CONDUIT    538.51     0  02:39      1.23    0.65    0.86
  WS02004402WS02004403 CONDUIT    538.17     0  02:39      1.24    0.77    0.88
  WS02004403WS02004404 CONDUIT    537.97     0  02:39      1.17    0.39    0.93
  WS02004404WS02004405 CONDUIT    538.11     0  02:40      1.43    5.27    0.96
  WS02004405WS02004406 CONDUIT    538.20     0  02:40      1.39    1.06    0.96
  WS02004406WS02004407 CONDUIT    537.79     0  02:46      1.04    0.24    0.63
  WS02004407WS02004409 CONDUIT    537.53     0  02:46      1.56    0.19    0.48
  WS02004409WS02004410 CONDUIT    537.37     0  02:44      1.05    0.69    0.67
  WS02004410WS02004411 CONDUIT    537.22     0  02:47      0.99    0.73    0.69
  WS02004411WS02004412 CONDUIT    537.10     0  02:47      0.92    0.76    0.69
  WS02004412WS02004413 CONDUIT    537.05     0  02:47      0.87    0.36    0.78
  WS02004413WS02003067 CONDUIT    536.83     0  02:48      1.11    0.23    0.59
  WS02006109WS02006110 CONDUIT    549.18     0  03:31      1.09    1.06    1.00
  WS02006110WS02006113 CONDUIT    557.28     0  01:50      1.34    0.51    0.78
  WS02006111WS02006112 CONDUIT    543.14     0  02:42      1.96    0.26    0.67
  WS02006112WS02006115 CONDUIT    548.11     0  02:38      0.86    0.32    0.87
  WS02006113WS02006111 CONDUIT    560.64     0  03:06      2.47    0.67    0.46
  WS02006115WS02006116 CONDUIT    539.38     0  02:43      1.19    0.69    0.76
  WS02006116WS02004401 CONDUIT    538.80     0  02:45      1.22    0.74    0.84
  WS02006228WS02006109 CONDUIT    547.70     0  03:31      1.09    2.39    1.00
  WS02006229WS02006228 CONDUIT    546.97     0  03:31      1.14    1.81    1.00
  WS02006230WS02006229 CONDUIT    546.78     0  03:31      1.42   12.17    1.00
  WS02006231WS02006230 CONDUIT    570.40     0  03:30      1.55    8.65    1.00
  WS02006232WS02006231 CONDUIT    570.50     0  03:30      1.48    1.20    1.00
  WS02006234WS02006232 CONDUIT    569.41     0  03:30      1.48    1.15    1.00
  WS02006235WS02006234 CONDUIT    565.28     0  03:30      1.47    5.96    1.00
  WS02006238WS02006235 CONDUIT    421.79     0  03:08      1.56    0.94    1.00
  WS02006239WS02006238 CONDUIT    419.57     0  03:08      1.10    1.34    1.00
  WS02006240WS02006239 CONDUIT    419.78     0  03:08      1.24    1.32    1.00
  WS02006242WS02006240 CONDUIT    417.97     0  03:08      1.13    1.66    1.00
  WS02006243WS02006242 CONDUIT    418.51     0  03:08      1.40    0.89    1.00
  WS02006245WS02006243 CONDUIT    417.87     0  03:08      1.45    1.24    1.00
  WS02006247WS02006245 CONDUIT    416.76     0  03:08      1.43    3.30    1.00
  WS02006248WS02006247 CONDUIT    416.71     0  03:08      1.44    0.91    1.00
  WS02006249WS02006248 CONDUIT    416.69     0  03:08      1.36    2.28    1.00
  WS02006251WS02006249 CONDUIT    459.02     0  00:00      1.99    1.32    1.00
  WS02006252WS02006251 CONDUIT    406.88     0  01:49     25.30    1.49    1.00
  WS02006256WS02006235 CONDUIT    289.15     0  01:38      4.23    3.06    1.00
  WSF200WS02003060     CONDUIT    536.95     0  02:48      2.06    0.12    0.28
  YS02001580YS02001583 CONDUIT    129.23     0  01:42      0.72    0.50    1.00
  YS02001583YS02001586 CONDUIT    168.35     0  01:42      0.72    0.25    1.00
  YS02001586YS02001590 CONDUIT    318.62     0  02:15      1.26    0.56    1.00
  YS02001590YS02001593 CONDUIT    318.19     0  02:16      1.13    2.00    1.00
  YS02001593YS02001596 CONDUIT    318.06     0  01:54      1.73    0.50    1.00
  YS02001596YS02001600 CONDUIT    318.07     0  02:15      1.24    0.62    1.00
  YS02001600YS02001601 CONDUIT    318.09     0  02:16      1.12    0.55    1.00
  YS02001601YS02001602 CONDUIT    529.77     0  01:42      1.87    1.91    1.00
  YS02001602YS02001605 CONDUIT    529.51     0  01:42      1.87   11.21    1.00
  YS02001605YS02001607 CONDUIT    529.21     0  01:42      1.87    2.90    1.00
  YS02001607YS02001610 CONDUIT    539.79     0  01:41      0.69    0.51    1.00
  YS02001610YS02001613 CONDUIT    546.78     0  01:41      0.70    0.63    1.00
  YS02001613YS02001616 CONDUIT    549.58     0  01:41      0.71    0.47    1.00
  YS02001616YS02001619 CONDUIT    505.37     0  01:42      0.68    0.88    1.00
  YS02001619YS02001622 CONDUIT    990.71     0  01:52      1.26    1.46    1.00
  YS02001622YS02001625 CONDUIT    991.14     0  01:52      1.26    0.53    1.00
  YS02001625YS02001629 CONDUIT    928.95     0  01:42      1.19    0.44    1.00
  YS02001629YS02163301 CONDUIT    925.40     0  01:44      1.18    1.14    1.00
  YS02001633YS02163601 CONDUIT   1380.50     0  01:44      1.76    1.45    1.00
  YS02001641YS02001644 CONDUIT   1379.94     0  01:44      1.76    4.46    1.00
  YS02001644YS02001647 CONDUIT   1803.21     0  01:44      2.30    1.06    1.00
  YS02001647YS02001649 CONDUIT   1829.97     0  01:44      2.33    0.97    1.00
  YS02001649YS02001757 CONDUIT   2033.87     0  01:44      2.59    1.23    1.00
  YS02001652YS02001649 CONDUIT   1010.34     0  01:50      1.29    0.50    1.00
  YS02001655YS02001652 CONDUIT   1010.94     0  01:50      1.39    0.49    1.00
  YS02001658YS02001655 CONDUIT   1010.44     0  01:50      1.92    0.43    1.00
  YS02001661YS02001658 CONDUIT   1009.95     0  01:50      2.35    0.40    1.00
  YS02001664YS02001661 CONDUIT   1008.98     0  01:50      2.36    0.32    0.91
  YS02001745YS02001748 CONDUIT    652.70     0  01:50      2.23    0.25    1.00
  YS02001748YS02001751 CONDUIT    653.47     0  01:50      1.73    0.33    1.00
  YS02001751YS02001754 CONDUIT    653.64     0  01:50      1.46    0.32    1.00
  YS02001754YS02001757 CONDUIT    654.34     0  01:50      0.83    0.26    1.00
  YS02001757CaochengTiaoxuchi CONDUIT   3381.80     0  01:47      4.31    1.46    1.00
  YS02001759YS02001757 CONDUIT   1400.87     0  01:49      1.78    1.00    1.00
  YS02001762YS02001759 CONDUIT    776.36     0  01:46      0.99    0.89    1.00
  YS02001765YS02001762 CONDUIT    776.59     0  01:46      0.99    0.73    1.00
  YS02001767YS02001765 CONDUIT    776.31     0  01:46      0.99    0.98    1.00
  YS02001770YS02001767 CONDUIT    774.52     0  01:46      0.99    3.07    1.00
  YS02001774YS02001770 CONDUIT    749.81     0  01:50      0.95    0.48    1.00
  YS02001779YS02001774 CONDUIT    749.85     0  01:50      0.95    0.38    1.00
  YS02001783YS02001784 CONDUIT   1169.17     0  01:48      2.33    1.61    1.00
  YS02001784YS02001785 CONDUIT   1170.11     0  01:48      2.33    2.72    1.00
  YS02001786YS02001788 CONDUIT   1170.17     0  01:48      2.49    2.25    0.89
  YS02001788YS02001790 CONDUIT   1177.59     0  01:47      2.71    0.87    0.84
  YS02001790YS02001791 CONDUIT   1296.78     0  01:49      3.44    1.41    0.70
  YS02001791YS02001793 CONDUIT   1251.77     0  01:50      6.76    0.54    0.44
  YS02001793JiankangQianchi CONDUIT   1263.78     0  01:53      2.52    0.10    0.65
  YS02001882YS02001884 CONDUIT     66.41     0  01:43      0.16    0.08    1.00
  YS02001884YS02001887 CONDUIT     75.06     0  01:42      0.12    0.10    1.00
  YS02001887YS02001890 CONDUIT    954.84     0  01:49      1.22    1.63    1.00
  YS02001890YS02001895 CONDUIT    517.62     0  01:55      0.66    0.24    1.00
  YS02001895YS02001898 CONDUIT    517.98     0  01:54      0.66    0.90    1.00
  YS02001898YS02001901 CONDUIT    518.22     0  01:54      0.66    0.33    1.00
  YS02001901YS02001904 CONDUIT    517.85     0  01:54      0.66    0.80    1.00
  YS02001904YS02001907 CONDUIT    519.07     0  01:55      0.66    0.18    1.00
  YS02001907YS02006553 CONDUIT    793.87     0  02:13      0.88    0.93    1.00
  YS02001910YS02001907 CONDUIT   1627.23     0  01:50      2.07    0.92    1.00
  YS02001915YS02001910 CONDUIT   1627.04     0  01:50      2.07    0.81    1.00
  YS02001918YS02001915 CONDUIT    539.45     0  01:50      0.69    0.30    1.00
  YS02001920YS02001918 CONDUIT    538.79     0  01:50      0.69    0.52    1.00
  YS02001923YS02001920 CONDUIT    536.02     0  01:50      0.70    0.24    1.00
  YS02001926YS02001923 CONDUIT    536.48     0  01:52      0.96    0.77    1.00
  YS02001929YS02001926 CONDUIT    535.44     0  01:52      1.14    0.25    1.00
  YS02006553YS02006556 CONDUIT    794.45     0  02:12      1.01    0.68    1.00
  YS02006556YS02006558 CONDUIT    794.85     0  02:12      1.01    0.63    1.00
  YS02006558YS02006561 CONDUIT   1180.24     0  01:45      4.17    2.61    1.00
  YS02006561YS02001783 CONDUIT   1168.78     0  01:48      2.33    0.61    1.00
  YS02163301YS02001633 CONDUIT    925.36     0  01:44      1.18    0.87    1.00
  YS02163601YS02164001 CONDUIT   1380.59     0  01:44      1.76    1.22    1.00
  YS02164001YS02001641 CONDUIT   1380.28     0  01:44      1.76    1.88    1.00
  CC-R1                PUMP       683.00     0  00:00              1.00
  CC-R2                PUMP       683.00     0  00:00              1.00
  CC-S1                PUMP       200.00     0  00:00              1.00
  CC-S2                PUMP       200.00     0  00:00              1.00
  JK-R1                PUMP      1000.00     0  00:00              1.00
  JK-R2                PUMP      1000.00     0  00:00              1.00
  JK-S                 PUMP       300.00     0  00:00              1.00
  
  
  ***************************
  Flow Classification Summary
  ***************************
  
  -------------------------------------------------------------------------------------
                      Adjusted    ---------- Fraction of Time in Flow Class ---------- 
                       /Actual         Up    Down  Sub   Sup   Up    Down  Norm  Inlet 
  Conduit               Length    Dry  Dry   Dry   Crit  Crit  Crit  Crit  Ltd   Ctrl  
  -------------------------------------------------------------------------------------
  1                       1.00   0.00  0.00  0.00  0.00  1.00  0.00  0.00  0.67  0.00
  WS02003060WS02003069    1.00   0.00  0.00  0.00  0.98  0.02  0.00  0.00  0.74  0.00
  WS02003066WSF200        1.00   0.06  0.00  0.00  0.00  0.94  0.00  0.00  0.75  0.00
  WS02003067WS02003066    1.00   0.05  0.01  0.00  0.94  0.00  0.00  0.00  0.00  0.00
  WS02003069WS02003072    1.00   0.00  0.00  0.00  0.99  0.01  0.00  0.00  0.75  0.00
  WS02003072WS02003073    1.00   0.00  0.00  0.00  0.00  0.00  0.00  1.00  0.00  0.00
  WS02004401WS02004402    1.00   0.02  0.00  0.00  0.98  0.00  0.00  0.00  0.00  0.00
  WS02004402WS02004403    1.00   0.02  0.00  0.00  0.98  0.00  0.00  0.00  0.00  0.00
  WS02004403WS02004404    1.00   0.00  0.03  0.00  0.97  0.00  0.00  0.00  0.00  0.00
  WS02004404WS02004405    1.00   0.00  0.00  0.00  1.00  0.00  0.00  0.00  0.00  0.00
  WS02004405WS02004406    1.00   0.00  0.00  0.00  1.00  0.00  0.00  0.00  0.00  0.00
  WS02004406WS02004407    1.00   0.00  0.03  0.00  0.96  0.00  0.00  0.00  0.00  0.00
  WS02004407WS02004409    1.00   0.04  0.00  0.00  0.95  0.01  0.00  0.00  0.95  0.00
  WS02004409WS02004410    1.00   0.04  0.00  0.00  0.96  0.00  0.00  0.00  0.00  0.00
  WS02004410WS02004411    1.00   0.04  0.00  0.00  0.96  0.00  0.00  0.00  0.00  0.00
  WS02004411WS02004412    1.00   0.04  0.00  0.00  0.96  0.00  0.00  0.00  0.00  0.00
  WS02004412WS02004413    1.00   0.04  0.00  0.00  0.96  0.00  0.00  0.00  0.00  0.00
  WS02004413WS02003067    1.00   0.04  0.01  0.00  0.00  0.00  0.95  0.00  0.00  0.00
  WS02006109WS02006110    1.00   0.00  0.01  0.00  0.98  0.00  0.01  0.00  0.00  0.00
  WS02006110WS02006113    1.00   0.01  0.01  0.00  0.98  0.00  0.00  0.00  0.00  0.00
  WS02006111WS02006112    1.00   0.02  0.00  0.00  0.98  0.00  0.00  0.00  0.98  0.00
  WS02006112WS02006115    1.00   0.02  0.00  0.00  0.97  0.00  0.00  0.00  0.00  0.00
  WS02006113WS02006111    1.00   0.02  0.00  0.00  0.00  0.98  0.00  0.00  0.10  0.00
  WS02006115WS02006116    1.00   0.02  0.00  0.00  0.97  0.00  0.00  0.01  0.00  0.00
  WS02006116WS02004401    1.00   0.02  0.00  0.00  0.98  0.00  0.00  0.00  0.00  0.00
  WS02006228WS02006109    1.00   0.00  0.00  0.00  1.00  0.00  0.00  0.00  0.00  0.00
  WS02006229WS02006228    1.00   0.00  0.00  0.00  0.99  0.00  0.00  0.01  0.00  0.00
  WS02006230WS02006229    1.00   0.00  0.00  0.00  0.99  0.00  0.00  0.01  0.00  0.00
  WS02006231WS02006230    1.00   0.00  0.00  0.00  0.24  0.00  0.75  0.00  0.00  0.00
  WS02006232WS02006231    1.00   0.00  0.00  0.00  0.99  0.00  0.01  0.00  0.00  0.00
  WS02006234WS02006232    1.00   0.00  0.00  0.00  1.00  0.00  0.00  0.00  0.50  0.00
  WS02006235WS02006234    1.00   0.00  0.00  0.00  0.46  0.00  0.54  0.00  0.00  0.00
  WS02006238WS02006235    1.00   0.00  0.00  0.00  1.00  0.00  0.00  0.00  0.00  0.00
  WS02006239WS02006238    1.00   0.00  0.00  0.00  1.00  0.00  0.00  0.00  0.60  0.00
  WS02006240WS02006239    1.00   0.00  0.00  0.00  0.36  0.00  0.00  0.63  0.01  0.00
  WS02006242WS02006240    1.00   0.00  0.00  0.00  1.00  0.00  0.00  0.00  0.00  0.00
  WS02006243WS02006242    1.00   0.00  0.00  0.00  0.99  0.00  0.00  0.00  0.69  0.00
  WS02006245WS02006243    1.00   0.00  0.00  0.00  0.41  0.00  0.00  0.59  0.00  0.00
  WS02006247WS02006245    1.00   0.00  0.00  0.00  0.99  0.00  0.00  0.01  0.00  0.00
  WS02006248WS02006247    1.00   0.00  0.00  0.00  0.99  0.00  0.00  0.01  0.13  0.00
  WS02006249WS02006248    1.00   0.00  0.00  0.00  0.30  0.00  0.70  0.00  0.00  0.00
  WS02006251WS02006249    1.00   0.00  0.00  0.00  0.99  0.00  0.00  0.00  0.71  0.00
  WS02006252WS02006251    1.00   0.00  0.20  0.00  0.18  0.00  0.62  0.00  0.00  0.00
  WS02006256WS02006235    1.00   0.00  0.00  0.00  1.00  0.00  0.00  0.00  0.00  0.00
  WSF200WS02003060        1.00   0.00  0.06  0.00  0.58  0.36  0.00  0.00  0.68  0.00
  YS02001580YS02001583    1.00   0.21  0.56  0.00  0.22  0.00  0.00  0.00  0.66  0.00
  YS02001583YS02001586    1.00   0.41  0.31  0.00  0.28  0.00  0.00  0.00  0.66  0.00
  YS02001586YS02001590    1.00   0.13  0.00  0.00  0.44  0.04  0.00  0.39  0.35  0.00
  YS02001590YS02001593    1.00   0.13  0.01  0.00  0.15  0.00  0.72  0.00  0.00  0.00
  YS02001593YS02001596    1.00   0.13  0.00  0.00  0.17  0.01  0.00  0.68  0.02  0.00
  YS02001596YS02001600    1.00   0.14  0.00  0.00  0.22  0.01  0.00  0.63  0.04  0.00
  YS02001600YS02001601    1.00   0.13  0.01  0.00  0.86  0.00  0.00  0.00  0.58  0.00
  YS02001601YS02001602    1.00   0.13  0.01  0.00  0.87  0.00  0.00  0.00  0.00  0.00
  YS02001602YS02001605    1.00   0.13  0.00  0.00  0.86  0.00  0.00  0.00  0.00  0.00
  YS02001605YS02001607    1.00   0.14  0.00  0.00  0.86  0.00  0.00  0.00  0.00  0.00
  YS02001607YS02001610    1.00   0.13  0.01  0.00  0.86  0.00  0.00  0.00  0.01  0.00
  YS02001610YS02001613    1.00   0.13  0.00  0.00  0.87  0.00  0.00  0.00  0.00  0.00
  YS02001613YS02001616    1.00   0.13  0.00  0.00  0.87  0.00  0.00  0.00  0.00  0.00
  YS02001616YS02001619    1.00   0.13  0.00  0.00  0.87  0.00  0.00  0.00  0.00  0.00
  YS02001619YS02001622    1.00   0.13  0.00  0.00  0.87  0.00  0.00  0.00  0.27  0.00
  YS02001622YS02001625    1.00   0.13  0.00  0.00  0.87  0.00  0.00  0.00  0.03  0.00
  YS02001625YS02001629    1.00   0.13  0.04  0.00  0.20  0.00  0.63  0.00  0.00  0.00
  YS02001629YS02163301    1.00   0.15  0.01  0.00  0.84  0.00  0.00  0.00  0.00  0.00
  YS02001633YS02163601    1.00   0.00  0.01  0.00  0.99  0.00  0.00  0.00  0.15  0.00
  YS02001641YS02001644    1.00   0.00  0.01  0.00  0.99  0.00  0.00  0.00  0.00  0.00
  YS02001644YS02001647    1.00   0.00  0.16  0.00  0.84  0.00  0.00  0.00  0.00  0.00
  YS02001647YS02001649    1.00   0.00  0.16  0.00  0.58  0.26  0.00  0.00  0.56  0.00
  YS02001649YS02001757    1.00   0.00  0.00  0.00  0.71  0.28  0.00  0.00  0.44  0.00
  YS02001652YS02001649    1.00   0.00  0.00  0.00  0.97  0.03  0.00  0.00  0.72  0.00
  YS02001655YS02001652    1.00   0.00  0.00  0.00  0.22  0.01  0.00  0.78  0.04  0.00
  YS02001658YS02001655    1.00   0.00  0.14  0.00  0.70  0.16  0.00  0.00  0.63  0.00
  YS02001661YS02001658    1.00   0.14  0.00  0.00  0.53  0.33  0.00  0.00  0.67  0.00
  YS02001664YS02001661    1.00   0.13  0.00  0.00  0.77  0.10  0.00  0.00  0.84  0.00
  YS02001745YS02001748    1.00   0.00  0.00  0.00  0.14  0.01  0.00  0.85  0.05  0.00
  YS02001748YS02001751    1.00   0.00  0.00  0.00  0.86  0.14  0.00  0.00  0.75  0.00
  YS02001751YS02001754    1.00   0.00  0.00  0.00  0.20  0.00  0.00  0.80  0.02  0.00
  YS02001754YS02001757    1.00   0.00  0.00  0.00  1.00  0.00  0.00  0.00  0.79  0.00
  YS02001757CaochengTiaoxuchi    1.00   0.00  0.00  0.00  0.98  0.02  0.00  0.00  0.77  0.00
  YS02001759YS02001757    1.00   0.00  0.00  0.00  0.99  0.01  0.00  0.00  0.60  0.00
  YS02001762YS02001759    1.00   0.00  0.00  0.00  1.00  0.00  0.00  0.00  0.03  0.00
  YS02001765YS02001762    1.00   0.00  0.00  0.00  1.00  0.00  0.00  0.00  0.71  0.00
  YS02001767YS02001765    1.00   0.00  0.00  0.00  1.00  0.00  0.00  0.00  0.00  0.00
  YS02001770YS02001767    1.00   0.00  0.00  0.00  1.00  0.00  0.00  0.00  0.00  0.00
  YS02001774YS02001770    1.00   0.00  0.13  0.00  0.71  0.00  0.15  0.00  0.02  0.00
  YS02001779YS02001774    1.00   0.00  0.00  0.00  1.00  0.00  0.00  0.00  0.75  0.00
  YS02001783YS02001784    1.00   0.00  0.17  0.00  0.83  0.00  0.00  0.00  0.54  0.00
  YS02001784YS02001785    1.00   0.00  0.00  0.00  1.00  0.00  0.00  0.00  0.16  0.00
  YS02001786YS02001788    1.00   0.00  0.00  0.00  0.79  0.21  0.00  0.00  0.00  0.00
  YS02001788YS02001790    1.00   0.00  0.00  0.00  0.21  0.79  0.00  0.00  0.78  0.00
  YS02001790YS02001791    1.00   0.00  0.00  0.00  0.01  0.99  0.00  0.00  0.17  0.00
  YS02001791YS02001793    1.00   0.00  0.00  0.00  0.00  1.00  0.00  0.00  0.01  0.00
  YS02001793JiankangQianchi    1.00   0.00  0.00  0.00  0.96  0.04  0.00  0.00  0.97  0.00
  YS02001882YS02001884    1.00   0.15  0.01  0.00  0.85  0.00  0.00  0.00  0.00  0.00
  YS02001884YS02001887    1.00   0.06  0.05  0.00  0.89  0.00  0.00  0.00  0.00  0.00
  YS02001887YS02001890    1.00   0.00  0.00  0.00  0.97  0.00  0.03  0.00  0.00  0.00
  YS02001890YS02001895    1.00   0.00  0.15  0.00  0.84  0.00  0.00  0.00  0.00  0.00
  YS02001895YS02001898    1.00   0.16  0.00  0.00  0.83  0.00  0.02  0.00  0.00  0.00
  YS02001898YS02001901    1.00   0.16  0.00  0.00  0.84  0.00  0.00  0.00  0.01  0.00
  YS02001901YS02001904    1.00   0.16  0.00  0.00  0.84  0.00  0.00  0.00  0.00  0.00
  YS02001904YS02001907    1.00   0.00  0.16  0.00  0.84  0.00  0.00  0.00  0.00  0.00
  YS02001907YS02006553    1.00   0.00  0.02  0.00  0.98  0.00  0.00  0.00  0.00  0.00
  YS02001910YS02001907    1.00   0.00  0.00  0.00  0.97  0.00  0.00  0.03  0.12  0.00
  YS02001915YS02001910    1.00   0.00  0.00  0.00  0.97  0.03  0.00  0.00  0.14  0.00
  YS02001918YS02001915    1.00   0.00  0.01  0.00  0.98  0.02  0.00  0.00  0.72  0.00
  YS02001920YS02001918    1.00   0.00  0.01  0.00  0.99  0.00  0.00  0.00  0.00  0.00
  YS02001923YS02001920    1.00   0.00  0.00  0.00  1.00  0.00  0.00  0.00  0.91  0.00
  YS02001926YS02001923    1.00   0.00  0.07  0.00  0.08  0.00  0.85  0.00  0.00  0.00
  YS02001929YS02001926    1.00   0.00  0.13  0.00  0.87  0.00  0.00  0.00  0.80  0.00
  YS02006553YS02006556    1.00   0.01  0.00  0.00  0.99  0.00  0.00  0.00  0.03  0.00
  YS02006556YS02006558    1.00   0.00  0.00  0.00  1.00  0.00  0.00  0.00  0.00  0.00
  YS02006558YS02006561    1.00   0.17  0.00  0.00  0.07  0.76  0.00  0.00  0.18  0.00
  YS02006561YS02001783    1.00   0.17  0.00  0.00  0.11  0.72  0.00  0.00  0.67  0.00
  YS02163301YS02001633    1.00   0.00  0.15  0.00  0.85  0.00  0.00  0.00  0.00  0.00
  YS02163601YS02164001    1.00   0.00  0.08  0.00  0.92  0.00  0.00  0.00  0.00  0.00
  YS02164001YS02001641    1.00   0.01  0.07  0.00  0.92  0.00  0.00  0.00  0.05  0.00
  
  
  *************************
  Conduit Surcharge Summary
  *************************
  
  ----------------------------------------------------------------------------
                                                           Hours        Hours 
                         --------- Hours Full --------   Above Full   Capacity
  Conduit                Both Ends  Upstream  Dnstream   Normal Flow   Limited
  ----------------------------------------------------------------------------
  WS02003072WS02003073        0.01      0.01      0.01      1.48         0.01
  WS02004404WS02004405        0.01      0.01      0.01      2.24         0.01
  WS02004405WS02004406        0.01      0.01      0.01      1.32         0.01
  WS02006109WS02006110        1.41      1.41      1.91      1.44         0.01
  WS02006110WS02006113        0.01      0.01      1.91      0.01         0.01
  WS02006111WS02006112        0.01      0.01      1.97      0.01         0.01
  WS02006112WS02006115        0.01      0.01      1.36      0.01         0.01
  WS02006228WS02006109        1.90      1.91      1.90      2.09         1.90
  WS02006229WS02006228        1.90      1.90      1.90      2.01         1.89
  WS02006230WS02006229        1.92      1.94      1.92      2.59         1.92
  WS02006231WS02006230        1.41      1.41      1.46      2.44         0.01
  WS02006232WS02006231        1.45      1.45      1.91      1.47         0.01
  WS02006234WS02006232        1.89      1.89      1.91      1.45         1.45
  WS02006235WS02006234        1.55      1.55      1.90      2.37         0.01
  WS02006238WS02006235        1.90      1.90      1.91      0.01         0.01
  WS02006239WS02006238        1.89      1.89      1.91      1.90         1.71
  WS02006240WS02006239        1.87      1.87      1.88      1.90         1.57
  WS02006242WS02006240        1.87      1.87      1.90      1.96         0.01
  WS02006243WS02006242        1.86      1.86      1.87      0.01         0.01
  WS02006245WS02006243        1.85      1.85      1.86      0.51         0.65
  WS02006247WS02006245        1.85      1.85      1.85      2.08         1.84
  WS02006248WS02006247        1.84      1.84      1.85      0.01         0.01
  WS02006249WS02006248        1.83      1.84      1.83      2.07         0.01
  WS02006251WS02006249        1.83      1.83      1.83      1.99         1.82
  WS02006252WS02006251        2.02      2.02      2.02      2.02         0.01
  WS02006256WS02006235        2.40      2.41      3.17      1.71         0.01
  YS02001580YS02001583        0.78      0.78      0.85      0.01         0.01
  YS02001583YS02001586        0.79      0.79      0.96      0.01         0.01
  YS02001586YS02001590        0.97      0.97      1.05      0.01         0.01
  YS02001590YS02001593        1.05      1.05      1.08      1.11         0.01
  YS02001593YS02001596        1.07      1.07      1.19      0.01         0.01
  YS02001596YS02001600        1.24      1.24      1.37      0.01         0.01
  YS02001600YS02001601        1.44      1.44      1.65      0.01         0.01
  YS02001601YS02001602        1.57      1.57      1.68      1.35         0.01
  YS02001602YS02001605        1.53      1.53      1.57      2.38         0.01
  YS02001605YS02001607        1.50      1.53      1.50      1.62         1.50
  YS02001607YS02001610        1.06      1.06      1.09      0.01         0.01
  YS02001610YS02001613        1.06      1.06      1.09      0.01         0.01
  YS02001613YS02001616        1.01      1.01      1.06      0.01         0.01
  YS02001616YS02001619        1.00      1.00      1.01      0.01         0.04
  YS02001619YS02001622        1.00      1.00      1.00      1.00         0.92
  YS02001622YS02001625        1.00      1.00      1.20      0.01         0.01
  YS02001625YS02001629        0.94      0.94      1.20      0.01         0.01
  YS02001629YS02163301        1.21      1.21      1.22      0.04         0.12
  YS02001633YS02163601        1.24      1.24      1.28      0.28         0.28
  YS02001641YS02001644        1.17      1.19      1.17      1.71         1.17
  YS02001644YS02001647        0.94      0.94      1.17      0.04         0.01
  YS02001647YS02001649        0.94      0.94      1.10      0.01         0.01
  YS02001649YS02001757        1.10      1.10      1.18      0.06         0.03
  YS02001652YS02001649        0.89      0.89      1.10      0.01         0.01
  YS02001655YS02001652        0.64      0.64      0.86      0.01         0.01
  YS02001658YS02001655        0.32      0.32      0.64      0.01         0.01
  YS02001661YS02001658        0.10      0.10      0.32      0.01         0.01
  YS02001664YS02001661        0.01      0.01      0.15      0.01         0.01
  YS02001745YS02001748        0.01      0.01      0.24      0.01         0.01
  YS02001748YS02001751        0.29      0.29      0.47      0.01         0.01
  YS02001751YS02001754        0.47      0.47      0.76      0.01         0.01
  YS02001754YS02001757        0.82      0.82      1.18      0.01         0.01
  YS02001757CaochengTiaoxuchi        1.16      1.18      1.63      0.43         0.38
  YS02001759YS02001757        1.08      1.08      1.18      0.01         0.03
  YS02001762YS02001759        1.04      1.04      1.08      0.01         0.01
  YS02001765YS02001762        0.98      0.98      1.04      0.01         0.01
  YS02001767YS02001765        0.95      0.95      0.98      0.01         0.02
  YS02001770YS02001767        0.94      0.94      0.95      0.65         0.62
  YS02001774YS02001770        0.91      0.91      1.02      0.01         0.01
  YS02001779YS02001774        0.74      0.74      1.02      0.01         0.01
  YS02001783YS02001784        0.64      0.66      0.64      0.83         0.64
  YS02001784YS02001785        0.52      0.64      0.52      1.13         0.52
  YS02001786YS02001788        0.01      0.52      0.01      0.94         0.01
  YS02001790YS02001791        0.01      0.01      0.01      0.62         0.01
  YS02001793JiankangQianchi        0.01      0.01      7.61      0.01         0.01
  YS02001882YS02001884        0.60      0.60      0.61      0.01         0.01
  YS02001884YS02001887        0.64      0.64      0.65      0.01         0.01
  YS02001887YS02001890        0.67      0.67      0.68      0.17         0.01
  YS02001890YS02001895        0.59      0.59      0.70      0.01         0.01
  YS02001895YS02001898        0.58      0.58      0.59      0.01         0.01
  YS02001898YS02001901        0.59      0.59      0.64      0.01         0.01
  YS02001901YS02001904        0.63      0.63      0.64      0.01         0.01
  YS02001904YS02001907        0.63      0.63      0.93      0.01         0.01
  YS02001907YS02006553        1.15      1.15      1.23      0.01         0.01
  YS02001910YS02001907        0.70      0.70      0.90      0.01         0.01
  YS02001915YS02001910        0.60      0.60      0.70      0.01         0.01
  YS02001918YS02001915        0.50      0.50      0.60      0.01         0.01
  YS02001920YS02001918        0.50      0.50      0.52      0.01         0.01
  YS02001923YS02001920        0.46      0.46      0.52      0.01         0.01
  YS02001926YS02001923        0.17      0.17      0.20      0.01         0.01
  YS02001929YS02001926        0.01      0.01      0.20      0.01         0.01
  YS02006553YS02006556        0.80      0.80      0.93      0.01         0.01
  YS02006556YS02006558        0.86      0.86      0.95      0.01         0.01
  YS02006558YS02006561        0.55      0.78      0.55      1.06         0.55
  YS02006561YS02001783        0.47      0.47      0.66      0.01         0.01
  YS02163301YS02001633        1.22      1.22      1.26      0.01         0.01
  YS02163601YS02164001        1.19      1.19      1.28      0.06         0.01
  YS02164001YS02001641        1.19      1.19      1.19      0.81         0.76
  
  
  ***************
  Pumping Summary
  ***************
  
  ---------------------------------------------------------------------------------------------------------
                                                  Min       Avg       Max     Total     Power    % Time Off
                        Percent   Number of      Flow      Flow      Flow    Volume     Usage    Pump Curve
  Pump                 Utilized   Start-Ups       LPS       LPS       LPS  10^6 ltr     Kw-hr    Low   High
  ---------------------------------------------------------------------------------------------------------
  CC-R1                   24.78           2      0.00    683.00    683.00     4.824     90.71    0.0   20.0
  CC-R2                   23.86           2      0.00    683.00    683.00     4.645     87.40    0.0   20.7
  CC-S1                   26.49           2      0.00    200.00    200.00     1.510      8.20    0.0    0.0
  CC-S2                   25.49           2      0.00    200.00    200.00     1.453      7.87    0.0    0.0
  JK-R1                    9.57           6      0.00   1000.00   1000.00     2.728     26.53    0.0    0.0
  JK-R2                    0.17           1      0.00   1000.00   1000.00     0.047      0.36    0.0    0.0
  JK-S                    21.63           3      0.00    300.00    300.00     1.849     29.13    0.0    0.0
  

  Analysis begun on:  Thu Jan 16 14:24:12 2025
  Analysis ended on:  Thu Jan 16 14:24:13 2025
  Total elapsed time: 00:00:01