
  EPA STORM WATER MANAGEMENT MODEL - VERSION 5.2 (Build 5.2.4)
  PYSWMM TOOLKIT API - VERSION v1.0 (2023-11-27)
  ------------------------------------------------------------

  WARNING 04: minimum elevation drop used for Conduit WS02004404WS02004405
  WARNING 03: negative offset ignored for Link YS02001904YS02001907
  
  ****************
  Analysis Options
  ****************
  Flow Units ............... LPS
  Process Models:
    Rainfall/Runoff ........ YES
    RDII ................... NO
    Snowmelt ............... NO
    Groundwater ............ NO
    Flow Routing ........... YES
    Ponding Allowed ........ NO
    Water Quality .......... NO
  Infiltration Method ...... HORTON
  Flow Routing Method ...... DYNWAVE
  Surcharge Method ......... EXTRAN
  Starting Date ............ 08/28/2015 08:00:00
  Ending Date .............. 08/28/2015 16:00:00
  Antecedent Dry Days ...... 8.0
  Report Time Step ......... 00:01:00
  Wet Time Step ............ 00:01:00
  Dry Time Step ............ 00:01:00
  Routing Time Step ........ 30.00 sec
  Variable Time Step ....... YES
  Maximum Trials ........... 8
  Number of Threads ........ 4
  Head Tolerance ........... 0.001500 m
  
  
  **************************        Volume         Depth
  Runoff Quantity Continuity     hectare-m            mm
  **************************     ---------       -------
  Total Precipitation ......         2.500        75.370
  Evaporation Loss .........         0.000         0.000
  Infiltration Loss ........         0.101         3.053
  Surface Runoff ...........         2.366        71.336
  Final Storage ............         0.033         0.997
  Continuity Error (%) .....        -0.021
  
  
  **************************        Volume        Volume
  Flow Routing Continuity        hectare-m      10^6 ltr
  **************************     ---------     ---------
  Dry Weather Inflow .......         0.025         0.248
  Wet Weather Inflow .......         2.366        23.660
  Groundwater Inflow .......         0.000         0.000
  RDII Inflow ..............         0.000         0.000
  External Inflow ..........         0.083         0.825
  External Outflow .........         1.705        17.054
  Flooding Loss ............         0.789         7.891
  Evaporation Loss .........         0.000         0.000
  Exfiltration Loss ........         0.000         0.000
  Initial Stored Volume ....         0.243         2.431
  Final Stored Volume ......         0.228         2.284
  Continuity Error (%) .....        -0.239
  
  
  *************************
  Highest Continuity Errors
  *************************
  Node YS02001583 (-10.08%)
  Node YS02001884 (4.84%)
  
  
  ***************************
  Time-Step Critical Elements
  ***************************
  Link WS02004404WS02004405 (38.22%)
  Link WS02006238WS02006235 (13.34%)
  Link YS02001791YS02001793 (12.55%)
  Link WS02003066WSF200 (10.15%)
  Link YS02006556YS02006558 (9.48%)
  
  
  ********************************
  Highest Flow Instability Indexes
  ********************************
  Link WS02006113WS02006111 (30)
  Link WS02004404WS02004405 (28)
  Link WS02006238WS02006235 (27)
  Link WS02004403WS02004404 (25)
  Link WS02004405WS02004406 (24)
  
  
  *********************************
  Most Frequent Nonconverging Nodes
  *********************************
  Node CC-1 (14.49%)
  Node CC-2 (14.49%)
  Node JK-1 (14.49%)
  Node JK-2 (14.49%)
  Node WSC (14.49%)
  
  
  *************************
  Routing Time Step Summary
  *************************
  Minimum Time Step           :     0.02 sec
  Average Time Step           :     3.29 sec
  Maximum Time Step           :     6.43 sec
  % of Time in Steady State   :     0.00
  Average Iterations per Step :     3.56
  % of Steps Not Converging   :    14.49
  Time Step Frequencies       :
     30.000 - 13.228 sec      :     0.00 %
     13.228 -  5.833 sec      :    19.03 %
      5.833 -  2.572 sec      :    27.92 %
      2.572 -  1.134 sec      :    44.10 %
      1.134 -  0.500 sec      :     8.94 %
  
  
  ***************************
  Subcatchment Runoff Summary
  ***************************
  
  ------------------------------------------------------------------------------------------------------------------------------
                            Total      Total      Total      Total     Imperv       Perv      Total       Total     Peak  Runoff
                           Precip      Runon       Evap      Infil     Runoff     Runoff     Runoff      Runoff   Runoff   Coeff
  Subcatchment                 mm         mm         mm         mm         mm         mm         mm    10^6 ltr      LPS
  ------------------------------------------------------------------------------------------------------------------------------
  sub60                     75.37       0.00       0.00       1.86      65.12       7.19      72.31        0.95   534.86   0.959
  sub61                     75.37       0.00       0.00       2.69      61.43      10.13      71.56        1.31   738.39   0.949
  sub62                     75.37       0.00       0.00       1.24      68.05       4.79      72.85        2.00  1040.99   0.967
  sub63                     75.37       0.00       0.00       4.93      52.54      16.93      69.48        1.58   812.50   0.922
  sub64                     75.37       0.00       0.00       2.50      62.86       8.81      71.67        1.72   842.39   0.951
  sub65                     75.37       0.00       0.00       2.16      64.32       7.64      71.96        1.98   942.02   0.955
  sub66                     75.37       0.00       0.00       6.02      52.43      15.84      68.27        3.18  1220.47   0.906
  sub67                     75.37       0.00       0.00       1.19      68.10       4.84      72.94        1.36   806.69   0.968
  sub68                     75.37       0.00       0.00       2.23      63.63       8.33      71.96        1.98  1064.07   0.955
  sub69                     75.37       0.00       0.00       1.98      63.95       9.33      73.28        2.71  1260.76   0.972
  sub70                     75.37       0.00       0.00       6.49      49.58      19.14      68.72        1.99   691.11   0.912
  sub71                     75.37       0.00       0.00       1.27      68.01       4.76      72.78        1.90   914.30   0.966
  sub72                     75.37       0.00       0.00       1.13      68.69       4.15      72.84        1.00   441.20   0.966
  
  
  ******************
  Node Depth Summary
  ******************
  
  ---------------------------------------------------------------------------------
                                 Average  Maximum  Maximum  Time of Max    Reported
                                   Depth    Depth      HGL   Occurrence   Max Depth
  Node                 Type       Meters   Meters   Meters  days hr:min      Meters
  ---------------------------------------------------------------------------------
  WS02003060           JUNCTION     0.22     0.39     5.32     0  02:14        0.39
  WS02003066           JUNCTION     0.18     0.30     5.85     0  02:13        0.30
  WS02003067           JUNCTION     0.47     0.70     6.02     0  02:13        0.70
  WS02003069           JUNCTION     0.24     0.43     5.02     0  02:14        0.43
  WS02003072           JUNCTION     0.30     0.50     4.87     0  02:15        0.50
  WS02003073           JUNCTION     0.17     0.30     4.36     0  02:16        0.30
  WS02004401           JUNCTION     0.58     0.88     6.88     0  02:08        0.88
  WS02004402           JUNCTION     0.61     0.91     6.87     0  02:08        0.91
  WS02004403           JUNCTION     0.63     0.92     6.85     0  02:07        0.92
  WS02004404           JUNCTION     0.70     1.06     6.91     0  02:07        1.03
  WS02004405           JUNCTION     0.69     0.97     6.82     0  02:08        0.97
  WS02004406           JUNCTION     0.70     0.96     6.79     0  02:11        0.96
  WS02004407           JUNCTION     0.16     0.30     6.61     0  02:12        0.30
  WS02004409           JUNCTION     0.36     0.67     6.44     0  02:12        0.67
  WS02004410           JUNCTION     0.39     0.69     6.41     0  02:12        0.68
  WS02004411           JUNCTION     0.41     0.69     6.37     0  02:12        0.69
  WS02004412           JUNCTION     0.43     0.70     6.34     0  02:13        0.70
  WS02004413           JUNCTION     0.59     0.86     6.33     0  02:13        0.86
  WS02006109           JUNCTION     0.63     1.05     7.67     0  01:44        0.98
  WS02006110           JUNCTION     0.63     1.01     7.60     0  01:44        0.94
  WS02006111           JUNCTION     0.16     0.29     6.99     0  02:46        0.29
  WS02006112           JUNCTION     0.73     1.09     6.97     0  02:08        1.08
  WS02006113           JUNCTION     0.25     0.46     7.35     0  02:01        0.45
  WS02006115           JUNCTION     0.46     0.78     6.92     0  02:10        0.78
  WS02006116           JUNCTION     0.55     0.86     6.90     0  02:08        0.86
  WS02006228           JUNCTION     0.63     1.08     7.73     0  01:43        1.02
  WS02006229           JUNCTION     0.61     1.10     7.80     0  01:43        1.06
  WS02006230           JUNCTION     0.62     1.23     7.98     0  01:43        1.13
  WS02006231           JUNCTION     0.43     0.96     8.08     0  01:43        0.89
  WS02006232           JUNCTION     0.57     1.14     8.18     0  01:43        1.10
  WS02006234           JUNCTION     0.51     1.15     8.31     0  01:43        1.13
  WS02006235           JUNCTION     0.56     1.24     8.40     0  01:43        1.22
  WS02006238           JUNCTION     0.58     1.27     8.42     0  01:43        1.26
  WS02006239           JUNCTION     0.55     1.25     8.46     0  01:43        1.25
  WS02006240           JUNCTION     0.52     1.21     8.50     0  01:43        1.21
  WS02006242           JUNCTION     0.57     1.28     8.55     0  01:44        1.28
  WS02006243           JUNCTION     0.50     1.17     8.59     0  01:43        1.17
  WS02006245           JUNCTION     0.49     1.19     8.67     0  02:30        1.19
  WS02006247           JUNCTION     0.51     1.18     8.68     0  02:30        1.18
  WS02006248           JUNCTION     0.48     1.10     8.69     0  02:30        1.10
  WS02006249           JUNCTION     0.50     1.09     8.69     0  01:43        1.09
  WS02006251           JUNCTION     0.50     1.40     9.07     0  01:43        1.12
  WS02006252           JUNCTION     0.31     1.50     9.74     0  00:00        0.73
  WS02006256           JUNCTION     1.29     2.35     9.28     0  00:00        2.35
  WSF200               JUNCTION     0.15     0.29     5.53     0  02:13        0.29
  YS02001580           JUNCTION     0.18     1.05     9.59     0  01:34        0.79
  YS02001583           JUNCTION     0.21     1.14     9.64     0  01:34        0.84
  YS02001586           JUNCTION     0.33     1.13     9.30     0  01:34        1.13
  YS02001590           JUNCTION     0.45     1.40     9.26     0  01:34        1.37
  YS02001593           JUNCTION     0.38     1.36     9.22     0  01:34        1.28
  YS02001596           JUNCTION     0.52     1.70     9.12     0  01:34        1.65
  YS02001600           JUNCTION     0.62     1.87     9.00     0  01:34        1.87
  YS02001601           JUNCTION     0.81     2.06     8.90     0  01:33        2.06
  YS02001602           JUNCTION     0.71     1.87     8.77     0  01:34        1.87
  YS02001605           JUNCTION     0.66     1.78     8.68     0  01:34        1.78
  YS02001607           JUNCTION     0.62     1.66     8.51     0  01:34        1.66
  YS02001610           JUNCTION     0.67     1.68     8.48     0  01:34        1.68
  YS02001613           JUNCTION     0.63     1.67     8.51     0  01:34        1.67
  YS02001616           JUNCTION     0.56     1.61     8.52     0  01:34        1.61
  YS02001619           JUNCTION     0.54     1.61     8.54     0  01:34        1.61
  YS02001622           JUNCTION     0.53     1.62     8.52     0  01:34        1.58
  YS02001625           JUNCTION     0.78     1.78     8.38     0  01:34        1.78
  YS02001629           JUNCTION     0.68     1.85     8.40     0  01:34        1.85
  YS02001633           JUNCTION     0.76     2.07     8.52     0  01:38        2.07
  YS02001641           JUNCTION     0.72     2.10     8.54     0  02:11        2.10
  YS02001644           JUNCTION     0.71     1.92     8.35     0  01:36        1.92
  YS02001647           JUNCTION     0.50     1.81     8.42     0  01:36        1.73
  YS02001649           JUNCTION     0.57     2.05     8.44     0  01:37        1.94
  YS02001652           JUNCTION     0.45     2.16     8.76     0  01:35        1.83
  YS02001655           JUNCTION     0.35     2.20     9.05     0  01:36        1.68
  YS02001658           JUNCTION     0.25     2.30     9.44     0  01:36        1.48
  YS02001661           JUNCTION     0.22     2.46     9.86     0  01:37        1.29
  YS02001664           JUNCTION     0.09     0.92     8.85     0  01:37        0.85
  YS02001745           JUNCTION     0.12     2.35     9.87     0  01:37        0.75
  YS02001748           JUNCTION     0.24     2.27     9.35     0  01:36        1.18
  YS02001751           JUNCTION     0.31     2.20     9.08     0  01:36        1.36
  YS02001754           JUNCTION     0.41     2.20     8.81     0  01:36        1.62
  YS02001757           JUNCTION     0.59     2.21     8.47     0  01:37        1.94
  YS02001759           JUNCTION     0.53     2.20     8.56     0  01:37        1.94
  YS02001762           JUNCTION     0.52     2.15     8.55     0  01:37        1.91
  YS02001765           JUNCTION     0.50     2.10     8.55     0  01:37        1.88
  YS02001767           JUNCTION     0.49     2.03     8.52     0  01:36        1.87
  YS02001770           JUNCTION     0.50     1.95     8.44     0  01:36        1.94
  YS02001774           JUNCTION     0.57     2.05     8.47     0  01:36        2.00
  YS02001779           JUNCTION     0.39     1.68     8.37     0  01:36        1.68
  YS02001783           JUNCTION     0.36     1.74     7.88     0  01:35        1.24
  YS02001784           JUNCTION     0.36     1.41     7.48     0  01:35        1.12
  YS02001786           JUNCTION     0.30     1.17     7.20     0  01:35        0.87
  YS02001788           JUNCTION     0.22     0.62     6.60     0  01:36        0.62
  YS02001790           JUNCTION     0.26     0.73     6.37     0  01:40        0.72
  YS02001791           JUNCTION     0.16     0.44     5.91     0  01:43        0.43
  YS02001793           JUNCTION     0.08     0.29     5.12     0  01:55        0.25
  YS02001882           JUNCTION     0.45     1.83     8.55     0  01:34        1.65
  YS02001884           JUNCTION     0.53     1.93     8.55     0  01:34        1.75
  YS02001887           JUNCTION     0.61     1.92     8.46     0  01:35        1.83
  YS02001890           JUNCTION     0.64     1.81     8.32     0  01:34        1.81
  YS02001895           JUNCTION     0.41     1.64     8.39     0  01:35        1.57
  YS02001898           JUNCTION     0.42     1.71     8.44     0  01:34        1.56
  YS02001901           JUNCTION     0.53     1.79     8.40     0  01:35        1.67
  YS02001904           JUNCTION     0.51     1.72     8.35     0  01:35        1.66
  YS02001907           JUNCTION     0.82     1.96     8.25     0  01:35        1.96
  YS02001910           JUNCTION     0.63     1.97     8.48     0  01:36        1.91
  YS02001915           JUNCTION     0.45     1.92     8.64     0  01:36        1.84
  YS02001918           JUNCTION     0.27     1.81     8.88     0  01:35        1.53
  YS02001920           JUNCTION     0.35     2.14     9.15     0  01:36        1.59
  YS02001923           JUNCTION     0.22     2.03     9.29     0  01:36        1.32
  YS02001926           JUNCTION     0.24     1.90     9.35     0  01:36        1.14
  YS02001929           JUNCTION     0.15     1.78     9.47     0  01:36        0.88
  YS02006553           JUNCTION     0.82     2.11     8.40     0  01:35        1.99
  YS02006556           JUNCTION     0.79     2.25     8.56     0  01:35        1.97
  YS02006558           JUNCTION     0.83     2.34     8.61     0  01:35        2.05
  YS02006561           JUNCTION     0.23     1.63     8.29     0  01:35        0.90
  YS02163301           JUNCTION     0.70     1.95     8.47     0  01:38        1.95
  YS02163601           JUNCTION     0.78     2.08     8.48     0  01:36        2.08
  YS02164001           JUNCTION     0.71     2.10     8.56     0  02:11        2.10
  CC-1                 OUTFALL      0.00     0.00     0.00     0  00:00        0.00
  CC-2                 OUTFALL      0.00     0.00     0.00     0  00:00        0.00
  JK-1                 OUTFALL      0.00     0.00     0.00     0  00:00        0.00
  JK-2                 OUTFALL      0.00     0.00     0.00     0  00:00        0.00
  WSC                  OUTFALL      0.17     0.30     0.97     0  02:16        0.30
  CC-storage           STORAGE      0.97     1.76     7.26     0  02:19        1.76
  JK-storage           STORAGE      2.22     4.22     5.02     0  02:15        4.10
  
  
  *******************
  Node Inflow Summary
  *******************
  
  -------------------------------------------------------------------------------------------------
                                  Maximum  Maximum                  Lateral       Total        Flow
                                  Lateral    Total  Time of Max      Inflow      Inflow     Balance
                                   Inflow   Inflow   Occurrence      Volume      Volume       Error
  Node                 Type           LPS      LPS  days hr:min    10^6 ltr    10^6 ltr     Percent
  -------------------------------------------------------------------------------------------------
  WS02003060           JUNCTION     16.53   558.87     0  02:14       0.471        4.69       0.040
  WS02003066           JUNCTION      0.00   542.04     0  02:13           0        4.22       0.029
  WS02003067           JUNCTION      0.00   541.95     0  02:13           0        4.22       0.094
  WS02003069           JUNCTION      0.32   559.01     0  02:14     0.00912         4.7       0.073
  WS02003072           JUNCTION      0.00   558.50     0  02:15           0        4.69       0.136
  WS02003073           JUNCTION      1.82   559.92     0  02:15      0.0519        4.74       0.102
  WS02004401           JUNCTION      0.00   541.53     0  02:24           0        4.31       0.230
  WS02004402           JUNCTION      0.00   544.35     0  02:23           0         4.3       0.234
  WS02004403           JUNCTION      0.00   543.19     0  02:43           0        4.29       0.225
  WS02004404           JUNCTION      0.16   564.82     0  02:07     0.00462        4.28      -0.009
  WS02004405           JUNCTION      0.04   612.25     0  02:46     0.00109        4.29       0.220
  WS02004406           JUNCTION      0.00   550.15     0  02:11           0        4.28       0.480
  WS02004407           JUNCTION      0.00   544.19     0  02:11           0        4.26       0.020
  WS02004409           JUNCTION      0.00   543.45     0  02:12           0        4.26       0.050
  WS02004410           JUNCTION      0.00   542.99     0  02:12           0        4.25       0.092
  WS02004411           JUNCTION      0.00   542.77     0  02:12           0        4.25       0.120
  WS02004412           JUNCTION      0.00   542.50     0  02:13           0        4.24       0.164
  WS02004413           JUNCTION      0.00   542.33     0  02:13           0        4.24       0.300
  WS02006109           JUNCTION      1.23   550.72     0  01:44      0.0351        4.35       0.209
  WS02006110           JUNCTION      0.00   550.77     0  01:43           0        4.35       0.146
  WS02006111           JUNCTION      0.00   560.17     0  02:02           0        4.34       0.017
  WS02006112           JUNCTION      0.00   543.35     0  02:46           0        4.34       0.462
  WS02006113           JUNCTION      0.00   563.45     0  01:44           0        4.34       0.035
  WS02006115           JUNCTION      0.00   546.57     0  02:26           0        4.32       0.145
  WS02006116           JUNCTION      0.00   543.02     0  02:44           0        4.31       0.011
  WS02006228           JUNCTION      0.00   548.87     0  01:44           0        4.32       0.083
  WS02006229           JUNCTION      0.00   548.49     0  01:44           0        4.33       0.127
  WS02006230           JUNCTION     10.28   560.32     0  01:43       0.293        4.33       0.124
  WS02006231           JUNCTION      0.00   549.58     0  01:43           0        4.04      -0.063
  WS02006232           JUNCTION      0.00   549.91     0  01:43           0        4.05       0.230
  WS02006234           JUNCTION      0.00   550.80     0  01:43           0        4.04      -0.173
  WS02006235           JUNCTION      0.00   552.49     0  01:43           0        4.13       0.208
  WS02006238           JUNCTION      0.00   419.80     0  03:21           0        2.72      -0.116
  WS02006239           JUNCTION      0.00   419.58     0  03:21           0        2.69      -0.064
  WS02006240           JUNCTION      0.00   418.70     0  03:21           0        2.65      -0.061
  WS02006242           JUNCTION      0.00   418.45     0  03:21           0        2.61      -0.038
  WS02006243           JUNCTION      0.00   417.78     0  03:21           0        2.59      -0.134
  WS02006245           JUNCTION      0.00   416.97     0  03:21           0        2.59       0.299
  WS02006247           JUNCTION      0.00   417.15     0  03:21           0        2.58       0.025
  WS02006248           JUNCTION      0.00   418.14     0  03:21           0        2.58       0.070
  WS02006249           JUNCTION      0.00   459.02     0  00:00           0           3       0.166
  WS02006251           JUNCTION      0.08   407.34     0  01:43     0.00219           3      -0.015
  WS02006252           JUNCTION      0.00   400.00     0  00:00           0           3      -0.018
  WS02006256           JUNCTION      0.00   300.00     0  00:00           0        2.14      -0.131
  WSF200               JUNCTION      0.00   542.12     0  02:13           0        4.22       0.007
  YS02001580           JUNCTION      0.00   153.27     0  01:33           0     0.00469       0.230
  YS02001583           JUNCTION      0.00   271.63     0  01:34           0      0.0152      -9.160
  YS02001586           JUNCTION    691.11   691.14     0  01:43        1.99           2       0.082
  YS02001590           JUNCTION      0.00   318.78     0  01:59           0        1.55      -0.018
  YS02001593           JUNCTION      0.00   318.61     0  01:59           0        1.55       0.003
  YS02001596           JUNCTION      0.00   318.12     0  01:59           0        1.55      -0.003
  YS02001600           JUNCTION      0.00   318.03     0  01:58           0        1.55       0.001
  YS02001601           JUNCTION   1260.76  1578.25     0  01:41        2.71        4.26       0.013
  YS02001602           JUNCTION      0.00   573.06     0  01:33           0        2.57       0.017
  YS02001605           JUNCTION      0.00   573.09     0  01:33           0        2.41       0.016
  YS02001607           JUNCTION      0.00   572.75     0  01:33           0        2.41       0.083
  YS02001610           JUNCTION      0.00   660.73     0  01:43           0        2.64       0.072
  YS02001613           JUNCTION      0.00   541.12     0  01:33           0        2.05       0.075
  YS02001616           JUNCTION      0.00   543.28     0  01:33           0        2.05       0.023
  YS02001619           JUNCTION   1220.47  1220.47     0  01:42        3.18        4.99      -0.006
  YS02001622           JUNCTION      0.00   943.78     0  01:34           0        4.75      -0.018
  YS02001625           JUNCTION      0.00  1285.38     0  01:42           0        4.98       0.177
  YS02001629           JUNCTION      0.00   924.66     0  01:34           0        3.77      -0.003
  YS02001633           JUNCTION    942.22  1439.77     0  01:35        1.99        5.48       0.058
  YS02001641           JUNCTION      0.00  1434.48     0  01:35           0        5.21       0.051
  YS02001644           JUNCTION    842.43  1945.33     0  01:35        1.72        6.93       0.037
  YS02001647           JUNCTION      0.00  1944.43     0  01:35           0        6.53       0.003
  YS02001649           JUNCTION      0.00  2203.14     0  01:36           0        8.12       0.001
  YS02001652           JUNCTION      0.00  1000.84     0  01:38           0        1.59      -0.115
  YS02001655           JUNCTION      0.15   999.92     0  01:38     0.00439        1.58      -0.216
  YS02001658           JUNCTION      0.00   999.22     0  01:38           0         1.6      -0.147
  YS02001661           JUNCTION      0.00   992.48     0  01:38           0         1.6       0.046
  YS02001664           JUNCTION    812.50   812.50     0  01:39        1.58        1.58      -0.016
  YS02001745           JUNCTION    534.86   740.40     0  01:37        0.95       0.954       0.221
  YS02001748           JUNCTION      0.04   787.22     0  01:36     0.00128       0.957      -0.408
  YS02001751           JUNCTION      0.01   650.51     0  01:37    0.000313       0.964       0.051
  YS02001754           JUNCTION      0.26   650.63     0  01:37     0.00741       0.978      -0.180
  YS02001757           JUNCTION      0.00  3535.10     0  01:38           0        12.2       0.034
  YS02001759           JUNCTION    738.43  1514.40     0  01:37        1.31        3.15      -0.012
  YS02001762           JUNCTION      0.00   832.94     0  01:37           0        1.83      -0.011
  YS02001765           JUNCTION      0.00   834.05     0  01:37           0        1.83      -0.006
  YS02001767           JUNCTION      0.54   834.54     0  01:37      0.0152        1.83      -0.005
  YS02001770           JUNCTION   1041.14  1041.14     0  01:40           2        2.05      -0.030
  YS02001774           JUNCTION      0.00   601.30     0  01:36           0       0.251       0.376
  YS02001779           JUNCTION      0.01   606.77     0  01:36    0.000142       0.205      -0.373
  YS02001783           JUNCTION      0.00  1163.73     0  01:36           0        4.72       0.004
  YS02001784           JUNCTION      1.06  1165.01     0  01:37      0.0302        4.75       0.010
  YS02001786           JUNCTION      0.06  1164.99     0  01:37      0.0016        4.75       0.013
  YS02001788           JUNCTION      0.07  1166.33     0  01:36     0.00202        4.75       0.006
  YS02001790           JUNCTION      0.15  1177.16     0  01:36     0.00442        4.75       0.026
  YS02001791           JUNCTION      0.00  1288.68     0  01:40           0        4.75      -0.031
  YS02001793           JUNCTION      0.00  1249.86     0  01:40           0        4.75       0.005
  YS02001882           JUNCTION      0.00    68.75     0  01:34           0      0.0129       4.042
  YS02001884           JUNCTION      0.00   136.11     0  01:34           0      0.0491       5.087
  YS02001887           JUNCTION    807.14   807.85     0  01:38        1.37         1.4       0.302
  YS02001890           JUNCTION      0.00   808.19     0  01:38           0        1.36       0.361
  YS02001895           JUNCTION      0.00   577.44     0  01:34           0        1.25       0.146
  YS02001898           JUNCTION      0.00   574.25     0  01:35           0        1.25      -0.015
  YS02001901           JUNCTION      0.00   581.32     0  01:35           0        1.25       0.281
  YS02001904           JUNCTION      0.00   583.25     0  01:35           0        1.26       0.223
  YS02001907           JUNCTION      0.00  1885.89     0  01:39           0        4.24       0.403
  YS02001910           JUNCTION      0.00  1369.44     0  01:39           0        2.98       0.247
  YS02001915           JUNCTION    914.32  1368.64     0  01:39         1.9        3.04       0.037
  YS02001918           JUNCTION      0.00   649.03     0  01:35           0        1.17       0.014
  YS02001920           JUNCTION      2.87   650.21     0  01:35      0.0818        1.14       0.064
  YS02001923           JUNCTION      0.04   854.36     0  01:35     0.00107        1.05      -0.063
  YS02001926           JUNCTION      0.05  1134.75     0  01:35     0.00149        1.03      -0.048
  YS02001929           JUNCTION    441.20   881.07     0  01:36           1        1.01      -0.026
  YS02006553           JUNCTION      0.00   790.58     0  02:03           0        2.77       0.439
  YS02006556           JUNCTION      0.00   790.56     0  02:03           0        2.78       0.291
  YS02006558           JUNCTION   1064.95  1187.88     0  01:35        2.01        4.75       0.077
  YS02006561           JUNCTION      0.00  1187.29     0  01:35           0        4.72      -0.004
  YS02163301           JUNCTION      0.00   908.94     0  01:35           0        3.76       0.040
  YS02163601           JUNCTION      0.11  1438.68     0  01:35     0.00313        5.21       0.092
  YS02164001           JUNCTION      0.00  1437.59     0  01:35           0        5.21       0.041
  CC-1                 OUTFALL       0.00   683.00     0  00:00           0        4.93       0.000
  CC-2                 OUTFALL       0.00   683.00     0  00:00           0        4.74       0.000
  JK-1                 OUTFALL       0.00  1000.00     0  00:00           0        2.61       0.000
  JK-2                 OUTFALL       0.00  1000.00     0  00:00           0      0.0484       0.000
  WSC                  OUTFALL       0.00   559.57     0  02:16           0        4.74       0.000
  CC-storage           STORAGE       0.00  3534.87     0  01:38           0        14.5      -0.148
  JK-storage           STORAGE       0.00  1290.14     0  01:38           0         4.9      -0.129
  
  
  **********************
  Node Surcharge Summary
  **********************
  
  Surcharging occurs when water rises above the top of the highest conduit.
  ---------------------------------------------------------------------
                                               Max. Height   Min. Depth
                                   Hours       Above Crown    Below Rim
  Node                 Type      Surcharged         Meters       Meters
  ---------------------------------------------------------------------
  WS02004404           JUNCTION        0.17          0.060        2.720
  WS02006109           JUNCTION        1.88          0.230        1.590
  WS02006110           JUNCTION        1.62          0.102        1.748
  WS02006112           JUNCTION        1.57          0.091        1.589
  WS02006228           JUNCTION        1.87          0.253        1.947
  WS02006229           JUNCTION        1.88          0.302        2.148
  WS02006230           JUNCTION        1.62          0.151        1.419
  WS02006231           JUNCTION        1.63          0.252        1.278
  WS02006232           JUNCTION        1.90          0.442        1.038
  WS02006234           JUNCTION        1.69          0.433        0.807
  WS02006235           JUNCTION        1.88          0.528        0.762
  WS02006238           JUNCTION        1.89          0.551        0.879
  WS02006239           JUNCTION        1.88          0.514        0.776
  WS02006240           JUNCTION        1.88          0.502        0.888
  WS02006242           JUNCTION        1.89          0.552        0.268
  WS02006243           JUNCTION        1.87          0.464        0.306
  WS02006245           JUNCTION        1.87          0.476        0.374
  WS02006247           JUNCTION        1.87          0.474        0.286
  WS02006248           JUNCTION        1.86          0.380        0.000
  WS02006249           JUNCTION        1.86          0.390        0.000
  WS02006251           JUNCTION        1.64          0.375        0.805
  WS02006252           JUNCTION        2.06          1.100        0.000
  WS02006256           JUNCTION        3.71          2.050        0.000
  YS02001580           JUNCTION        0.78          0.450        0.000
  YS02001583           JUNCTION        0.79          0.500        0.000
  YS02001586           JUNCTION        0.98          0.510        0.000
  YS02001590           JUNCTION        1.07          0.750        0.000
  YS02001593           JUNCTION        1.08          0.741        0.099
  YS02001596           JUNCTION        1.21          0.975        0.095
  YS02001600           JUNCTION        1.39          1.190        0.000
  YS02001601           JUNCTION        1.70          1.440        0.000
  YS02001602           JUNCTION        1.63          1.270        0.000
  YS02001605           JUNCTION        1.59          1.180        0.000
  YS02001607           JUNCTION        1.08          0.659        0.021
  YS02001610           JUNCTION        1.11          0.680        0.000
  YS02001613           JUNCTION        1.07          0.670        0.030
  YS02001616           JUNCTION        1.03          0.610        0.000
  YS02001619           JUNCTION        1.01          0.610        0.000
  YS02001622           JUNCTION        1.01          0.620        0.000
  YS02001625           JUNCTION        1.22          0.780        0.000
  YS02001629           JUNCTION        0.95          0.470        0.000
  YS02001633           JUNCTION        1.26          1.050        0.010
  YS02001641           JUNCTION        1.21          1.100        0.000
  YS02001644           JUNCTION        1.19          0.920        0.000
  YS02001647           JUNCTION        0.96          0.808        0.092
  YS02001649           JUNCTION        1.13          1.050        0.000
  YS02001652           JUNCTION        0.89          1.130        0.000
  YS02001655           JUNCTION        0.61          1.200        0.000
  YS02001658           JUNCTION        0.29          1.300        0.000
  YS02001661           JUNCTION        0.01          1.390        0.000
  YS02001745           JUNCTION        0.01          1.350        0.000
  YS02001748           JUNCTION        0.20          1.190        0.000
  YS02001751           JUNCTION        0.43          1.200        0.000
  YS02001754           JUNCTION        0.76          1.150        0.000
  YS02001757           JUNCTION        1.21          1.210        0.000
  YS02001759           JUNCTION        1.11          1.199        0.011
  YS02001762           JUNCTION        1.07          1.150        0.000
  YS02001765           JUNCTION        1.01          1.097        0.003
  YS02001767           JUNCTION        0.96          1.030        0.000
  YS02001770           JUNCTION        0.93          0.920        0.000
  YS02001774           JUNCTION        1.04          1.050        0.000
  YS02001779           JUNCTION        0.73          0.680        0.000
  YS02001783           JUNCTION        0.67          0.941        0.659
  YS02001784           JUNCTION        0.64          0.610        0.880
  YS02001786           JUNCTION        0.53          0.373        1.057
  YS02001882           JUNCTION        0.60          0.830        0.000
  YS02001884           JUNCTION        0.61          0.870        0.000
  YS02001887           JUNCTION        0.66          0.868        0.082
  YS02001890           JUNCTION        0.67          0.760        0.000
  YS02001895           JUNCTION        0.59          0.640        0.110
  YS02001898           JUNCTION        0.58          0.678        0.062
  YS02001901           JUNCTION        0.64          0.794        0.076
  YS02001904           JUNCTION        0.63          0.719        0.131
  YS02001907           JUNCTION        0.90          0.950        0.000
  YS02001910           JUNCTION        0.70          0.974        0.126
  YS02001915           JUNCTION        0.60          0.919        0.081
  YS02001918           JUNCTION        0.51          0.810        0.000
  YS02001920           JUNCTION        0.52          1.140        0.000
  YS02001923           JUNCTION        0.11          0.820        0.000
  YS02001926           JUNCTION        0.15          0.900        0.000
  YS02001929           JUNCTION        0.01          0.780        0.000
  YS02006553           JUNCTION        0.94          1.113        0.077
  YS02006556           JUNCTION        0.80          1.214        0.136
  YS02006558           JUNCTION        0.79          1.241        0.159
  YS02006561           JUNCTION        0.47          0.829        0.321
  YS02163301           JUNCTION        1.24          0.950        0.080
  YS02163601           JUNCTION        1.30          1.080        0.000
  YS02164001           JUNCTION        1.22          1.100        0.000
  
  
  *********************
  Node Flooding Summary
  *********************
  
  Flooding refers to all water that overflows a node, whether it ponds or not.
  --------------------------------------------------------------------------
                                                             Total   Maximum
                                 Maximum   Time of Max       Flood    Ponded
                        Hours       Rate    Occurrence      Volume     Depth
  Node                 Flooded       LPS   days hr:min    10^6 ltr    Meters
  --------------------------------------------------------------------------
  WS02006248              0.01      1.75      0  03:22       0.000     0.000
  WS02006249              1.64     99.27      0  01:43       0.417     0.000
  WS02006252              0.01    245.63      0  00:00       0.000     0.000
  WS02006256              1.98    293.19      0  00:00       0.675     0.000
  YS02001580              0.01     93.93      0  01:34       0.000     0.000
  YS02001583              0.01    151.45      0  01:34       0.000     0.000
  YS02001586              0.62    373.67      0  01:43       0.433     0.000
  YS02001590              0.01      1.56      0  01:34       0.000     0.000
  YS02001600              0.01      6.32      0  01:34       0.000     0.000
  YS02001601              0.89   1180.41      0  01:41       1.696     0.000
  YS02001602              0.79     62.28      0  01:59       0.161     0.000
  YS02001605              0.01      2.57      0  01:34       0.000     0.000
  YS02001610              0.69    660.31      0  01:43       0.831     0.000
  YS02001616              0.01     48.11      0  01:34       0.000     0.000
  YS02001619              0.01     62.74      0  01:34       0.000     0.000
  YS02001622              0.01    178.44      0  01:34       0.000     0.000
  YS02001625              0.67   1285.24      0  01:42       1.464     0.000
  YS02001629              0.11    270.97      0  01:38       0.057     0.000
  YS02001641              0.01      7.53      0  02:11       0.000     0.000
  YS02001644              0.23    821.84      0  01:38       0.383     0.000
  YS02001649              0.01    130.01      0  01:37       0.001     0.000
  YS02001652              0.01    286.11      0  01:35       0.000     0.000
  YS02001655              0.01    414.11      0  01:36       0.001     0.000
  YS02001658              0.01    511.08      0  01:37       0.001     0.000
  YS02001661              0.01    276.37      0  01:37       0.000     0.000
  YS02001745              0.01    237.67      0  01:37       0.000     0.000
  YS02001748              0.01    511.58      0  01:37       0.001     0.000
  YS02001751              0.01    299.56      0  01:36       0.001     0.000
  YS02001754              0.01     81.48      0  01:36       0.000     0.000
  YS02001757              0.01     14.02      0  01:37       0.000     0.000
  YS02001762              0.01      4.75      0  01:37       0.000     0.000
  YS02001767              0.01    147.82      0  01:36       0.000     0.000
  YS02001770              0.01    302.09      0  01:36       0.001     0.000
  YS02001774              0.01     95.98      0  01:36       0.000     0.000
  YS02001779              0.20    577.56      0  01:36       0.184     0.000
  YS02001882              0.01     22.93      0  01:34       0.000     0.000
  YS02001884              0.01     17.56      0  01:34       0.000     0.000
  YS02001890              0.18    289.10      0  01:38       0.107     0.000
  YS02001907              0.44   1788.65      0  01:39       1.462     0.000
  YS02001918              0.01    248.71      0  01:36       0.003     0.000
  YS02001920              0.01     46.43      0  01:36       0.000     0.000
  YS02001923              0.01    366.10      0  01:36       0.002     0.000
  YS02001926              0.01    897.92      0  01:36       0.004     0.000
  YS02001929              0.01    697.87      0  01:36       0.001     0.000
  YS02163601              0.01      5.77      0  02:11       0.000     0.000
  YS02164001              0.01     12.90      0  02:11       0.000     0.000
  
  
  **********************
  Storage Volume Summary
  **********************
  
  ------------------------------------------------------------------------------------------------
                         Average    Avg   Evap  Exfil     Maximum    Max    Time of Max    Maximum
                          Volume   Pcnt   Pcnt   Pcnt      Volume   Pcnt     Occurrence    Outflow
  Storage Unit           1000 m³   Full   Loss   Loss     1000 m³   Full    days hr:min        LPS
  ------------------------------------------------------------------------------------------------
  CC-storage               2.697   42.1    0.0    0.0       4.912   76.6       0  02:19    1783.53
  JK-storage               0.112   38.3    0.0    0.0       0.212   72.8       0  02:15    2300.00
  
  
  ***********************
  Outfall Loading Summary
  ***********************
  
  -----------------------------------------------------------
                         Flow       Avg       Max       Total
                         Freq      Flow      Flow      Volume
  Outfall Node           Pcnt       LPS       LPS    10^6 ltr
  -----------------------------------------------------------
  CC-1                  43.50    683.00    683.00       4.926
  CC-2                  41.70    683.00    683.00       4.739
  JK-1                  18.52   1000.00   1000.00       2.606
  JK-2                   0.24   1000.00   1000.00       0.048
  WSC                   99.93    248.43    559.57       4.735
  -----------------------------------------------------------
  System                40.78   3614.43   3366.23      17.054
  
  
  ********************
  Link Flow Summary
  ********************
  
  -----------------------------------------------------------------------------
                                 Maximum  Time of Max   Maximum    Max/    Max/
                                  |Flow|   Occurrence   |Veloc|    Full    Full
  Link                 Type          LPS  days hr:min     m/sec    Flow   Depth
  -----------------------------------------------------------------------------
  1                    CONDUIT    559.57     0  02:16      2.83    0.19    0.30
  WS02003060WS02003069 CONDUIT    558.69     0  02:14      1.65    0.22    0.34
  WS02003066WSF200     CONDUIT    542.12     0  02:13      2.86    0.09    0.22
  WS02003067WS02003066 CONDUIT    542.04     0  02:13      1.21    0.17    0.42
  WS02003069WS02003072 CONDUIT    558.50     0  02:15      1.37    0.27    0.39
  WS02003072WS02003073 CONDUIT    558.10     0  02:15      1.44    1.21    0.38
  WS02004401WS02004402 CONDUIT    544.35     0  02:23      1.23    0.65    0.89
  WS02004402WS02004403 CONDUIT    543.19     0  02:43      1.24    0.78    0.91
  WS02004403WS02004404 CONDUIT    564.65     0  02:07      1.17    0.41    0.96
  WS02004404WS02004405 CONDUIT    612.21     0  02:46      1.43    6.00    0.98
  WS02004405WS02004406 CONDUIT    550.15     0  02:11      1.39    1.09    0.97
  WS02004406WS02004407 CONDUIT    544.19     0  02:11      1.05    0.24    0.63
  WS02004407WS02004409 CONDUIT    543.45     0  02:12      1.57    0.19    0.48
  WS02004409WS02004410 CONDUIT    542.99     0  02:12      1.06    0.70    0.68
  WS02004410WS02004411 CONDUIT    542.77     0  02:12      1.00    0.74    0.69
  WS02004411WS02004412 CONDUIT    542.50     0  02:13      0.95    0.77    0.70
  WS02004412WS02004413 CONDUIT    542.33     0  02:13      0.87    0.36    0.78
  WS02004413WS02003067 CONDUIT    541.95     0  02:13      1.12    0.23    0.59
  WS02006109WS02006110 CONDUIT    550.77     0  01:43      1.10    1.06    1.00
  WS02006110WS02006113 CONDUIT    563.45     0  01:44      1.36    0.51    0.78
  WS02006111WS02006112 CONDUIT    543.35     0  02:46      1.96    0.26    0.67
  WS02006112WS02006115 CONDUIT    546.57     0  02:26      0.87    0.32    0.88
  WS02006113WS02006111 CONDUIT    560.17     0  02:02      2.46    0.67    0.46
  WS02006115WS02006116 CONDUIT    543.02     0  02:44      1.19    0.70    0.79
  WS02006116WS02004401 CONDUIT    541.53     0  02:24      1.22    0.75    0.87
  WS02006228WS02006109 CONDUIT    549.49     0  01:44      1.09    2.40    1.00
  WS02006229WS02006228 CONDUIT    548.87     0  01:44      1.14    1.82    1.00
  WS02006230WS02006229 CONDUIT    548.49     0  01:44      1.43   12.21    1.00
  WS02006231WS02006230 CONDUIT    550.04     0  01:43      1.54    8.34    1.00
  WS02006232WS02006231 CONDUIT    549.58     0  01:43      1.43    1.15    1.00
  WS02006234WS02006232 CONDUIT    549.91     0  01:43      1.43    1.11    1.00
  WS02006235WS02006234 CONDUIT    550.80     0  01:43      1.43    5.81    1.00
  WS02006238WS02006235 CONDUIT    419.43     0  03:21      1.55    0.94    1.00
  WS02006239WS02006238 CONDUIT    419.80     0  03:21      1.10    1.34    1.00
  WS02006240WS02006239 CONDUIT    419.58     0  03:21      1.24    1.32    1.00
  WS02006242WS02006240 CONDUIT    418.70     0  03:21      1.13    1.66    1.00
  WS02006243WS02006242 CONDUIT    418.45     0  03:21      1.40    0.89    1.00
  WS02006245WS02006243 CONDUIT    417.78     0  03:21      1.45    1.24    1.00
  WS02006247WS02006245 CONDUIT    416.97     0  03:21      1.43    3.31    1.00
  WS02006248WS02006247 CONDUIT    417.15     0  03:21      1.44    0.91    1.00
  WS02006249WS02006248 CONDUIT    418.14     0  03:21      1.36    2.29    1.00
  WS02006251WS02006249 CONDUIT    459.02     0  00:00      1.99    1.32    1.00
  WS02006252WS02006251 CONDUIT    407.26     0  01:43     25.30    1.49    1.00
  WS02006256WS02006235 CONDUIT    288.91     0  00:00      4.23    3.06    1.00
  WSF200WS02003060     CONDUIT    542.34     0  02:14      2.07    0.12    0.28
  YS02001580YS02001583 CONDUIT    153.27     0  01:33      0.86    0.59    1.00
  YS02001583YS02001586 CONDUIT    200.57     0  01:34      0.87    0.30    1.00
  YS02001586YS02001590 CONDUIT    318.78     0  01:59      1.27    0.56    1.00
  YS02001590YS02001593 CONDUIT    318.61     0  01:59      1.13    2.00    1.00
  YS02001593YS02001596 CONDUIT    318.12     0  01:59      1.73    0.50    1.00
  YS02001596YS02001600 CONDUIT    318.03     0  01:58      1.22    0.62    1.00
  YS02001600YS02001601 CONDUIT    318.20     0  01:59      1.13    0.55    1.00
  YS02001601YS02001602 CONDUIT    573.06     0  01:33      2.03    2.07    1.00
  YS02001602YS02001605 CONDUIT    573.09     0  01:33      2.03   12.13    1.00
  YS02001605YS02001607 CONDUIT    572.75     0  01:33      2.03    3.14    1.00
  YS02001607YS02001610 CONDUIT    541.40     0  01:33      0.71    0.51    1.00
  YS02001610YS02001613 CONDUIT    541.12     0  01:33      0.69    0.62    1.00
  YS02001613YS02001616 CONDUIT    543.28     0  01:33      0.69    0.47    1.00
  YS02001616YS02001619 CONDUIT    511.94     0  01:34      0.69    0.89    1.00
  YS02001619YS02001622 CONDUIT    943.78     0  01:34      1.27    1.39    1.00
  YS02001622YS02001625 CONDUIT    935.07     0  01:34      1.19    0.50    1.00
  YS02001625YS02001629 CONDUIT    924.66     0  01:34      1.19    0.44    1.00
  YS02001629YS02163301 CONDUIT    908.94     0  01:35      1.16    1.12    1.00
  YS02001633YS02163601 CONDUIT   1438.57     0  01:35      1.83    1.51    1.00
  YS02001641YS02001644 CONDUIT   1432.95     0  01:35      1.82    4.63    1.00
  YS02001644YS02001647 CONDUIT   1944.43     0  01:35      2.48    1.14    1.00
  YS02001647YS02001649 CONDUIT   1930.59     0  01:35      2.46    1.02    1.00
  YS02001649YS02001757 CONDUIT   2203.86     0  01:36      2.81    1.34    1.00
  YS02001652YS02001649 CONDUIT   1001.04     0  01:38      1.27    0.50    1.00
  YS02001655YS02001652 CONDUIT   1000.84     0  01:38      1.53    0.49    1.00
  YS02001658YS02001655 CONDUIT    999.77     0  01:38      2.03    0.42    1.00
  YS02001661YS02001658 CONDUIT    999.22     0  01:38      2.43    0.39    1.00
  YS02001664YS02001661 CONDUIT    992.48     0  01:38      2.53    0.31    0.96
  YS02001745YS02001748 CONDUIT    676.27     0  01:37      2.40    0.26    1.00
  YS02001748YS02001751 CONDUIT    650.50     0  01:37      1.88    0.33    1.00
  YS02001751YS02001754 CONDUIT    650.37     0  01:37      1.57    0.31    1.00
  YS02001754YS02001757 CONDUIT    650.24     0  01:37      0.83    0.26    1.00
  YS02001757CaochengTiaoxuchi CONDUIT   3534.87     0  01:38      4.54    1.53    1.00
  YS02001759YS02001757 CONDUIT   1513.94     0  01:37      1.93    1.08    1.00
  YS02001762YS02001759 CONDUIT    832.61     0  01:37      1.06    0.96    1.00
  YS02001765YS02001762 CONDUIT    832.94     0  01:37      1.06    0.78    1.00
  YS02001767YS02001765 CONDUIT    834.05     0  01:37      1.06    1.05    1.00
  YS02001770YS02001767 CONDUIT    834.00     0  01:37      1.06    3.30    1.00
  YS02001774YS02001770 CONDUIT    601.30     0  01:36      0.77    0.38    1.00
  YS02001779YS02001774 CONDUIT    606.76     0  01:36      0.77    0.31    1.00
  YS02001783YS02001784 CONDUIT   1163.95     0  01:37      2.32    1.60    1.00
  YS02001784YS02001785 CONDUIT   1164.93     0  01:37      2.32    2.71    1.00
  YS02001786YS02001788 CONDUIT   1166.26     0  01:36      2.49    2.25    0.89
  YS02001788YS02001790 CONDUIT   1177.01     0  01:36      2.71    0.87    0.84
  YS02001790YS02001791 CONDUIT   1288.68     0  01:40      3.42    1.40    0.71
  YS02001791YS02001793 CONDUIT   1249.86     0  01:40      6.79    0.54    0.44
  YS02001793JiankangQianchi CONDUIT   1290.14     0  01:38      2.58    0.10    0.64
  YS02001882YS02001884 CONDUIT     68.75     0  01:34      0.17    0.08    1.00
  YS02001884YS02001887 CONDUIT    136.11     0  01:34      0.17    0.18    1.00
  YS02001887YS02001890 CONDUIT    808.19     0  01:38      1.03    1.38    1.00
  YS02001890YS02001895 CONDUIT    577.44     0  01:34      0.74    0.27    1.00
  YS02001895YS02001898 CONDUIT    574.25     0  01:35      0.73    1.00    1.00
  YS02001898YS02001901 CONDUIT    581.32     0  01:35      0.74    0.37    1.00
  YS02001901YS02001904 CONDUIT    583.25     0  01:35      0.74    0.90    1.00
  YS02001904YS02001907 CONDUIT    582.32     0  01:35      0.74    0.20    1.00
  YS02001907YS02006553 CONDUIT    790.58     0  02:03      0.88    0.93    1.00
  YS02001910YS02001907 CONDUIT   1369.15     0  01:39      1.74    0.77    1.00
  YS02001915YS02001910 CONDUIT   1369.44     0  01:39      1.74    0.68    1.00
  YS02001918YS02001915 CONDUIT    649.03     0  01:35      0.83    0.36    1.00
  YS02001920YS02001918 CONDUIT    647.34     0  01:35      0.82    0.63    1.00
  YS02001923YS02001920 CONDUIT    650.65     0  01:35      0.87    0.29    1.00
  YS02001926YS02001923 CONDUIT    902.89     0  01:35      1.35    1.29    1.00
  YS02001929YS02001926 CONDUIT    594.35     0  01:36      1.22    0.28    1.00
  YS02006553YS02006556 CONDUIT    790.56     0  02:03      1.01    0.68    1.00
  YS02006556YS02006558 CONDUIT    791.51     0  02:03      1.01    0.62    1.00
  YS02006558YS02006561 CONDUIT   1187.29     0  01:35      4.20    2.62    1.00
  YS02006561YS02001783 CONDUIT   1163.73     0  01:36      2.32    0.60    1.00
  YS02163301YS02001633 CONDUIT    909.52     0  01:35      1.16    0.86    1.00
  YS02163601YS02164001 CONDUIT   1437.59     0  01:35      1.83    1.27    1.00
  YS02164001YS02001641 CONDUIT   1434.48     0  01:35      1.83    1.96    1.00
  CC-R1                PUMP       683.00     0  00:00              1.00
  CC-R2                PUMP       683.00     0  00:00              1.00
  CC-S1                PUMP       200.00     0  00:00              1.00
  CC-S2                PUMP       200.00     0  00:00              1.00
  JK-R1                PUMP      1000.00     0  00:00              1.00
  JK-R2                PUMP      1000.00     0  00:00              1.00
  JK-S                 PUMP       300.00     0  00:00              1.00
  
  
  ***************************
  Flow Classification Summary
  ***************************
  
  -------------------------------------------------------------------------------------
                      Adjusted    ---------- Fraction of Time in Flow Class ---------- 
                       /Actual         Up    Down  Sub   Sup   Up    Down  Norm  Inlet 
  Conduit               Length    Dry  Dry   Dry   Crit  Crit  Crit  Crit  Ltd   Ctrl  
  -------------------------------------------------------------------------------------
  1                       1.00   0.00  0.00  0.00  0.00  1.00  0.00  0.00  0.60  0.00
  WS02003060WS02003069    1.00   0.00  0.00  0.00  0.97  0.03  0.00  0.00  0.73  0.00
  WS02003066WSF200        1.00   0.06  0.00  0.00  0.00  0.94  0.00  0.00  0.72  0.00
  WS02003067WS02003066    1.00   0.05  0.01  0.00  0.94  0.00  0.00  0.00  0.00  0.00
  WS02003069WS02003072    1.00   0.00  0.00  0.00  0.99  0.01  0.00  0.00  0.75  0.00
  WS02003072WS02003073    1.00   0.00  0.00  0.00  0.00  0.00  0.00  1.00  0.00  0.00
  WS02004401WS02004402    1.00   0.02  0.00  0.00  0.98  0.00  0.00  0.00  0.00  0.00
  WS02004402WS02004403    1.00   0.02  0.00  0.00  0.98  0.00  0.00  0.00  0.00  0.00
  WS02004403WS02004404    1.00   0.00  0.03  0.00  0.97  0.00  0.00  0.00  0.00  0.00
  WS02004404WS02004405    1.00   0.00  0.00  0.00  1.00  0.00  0.00  0.00  0.01  0.00
  WS02004405WS02004406    1.00   0.00  0.00  0.00  1.00  0.00  0.00  0.00  0.00  0.00
  WS02004406WS02004407    1.00   0.00  0.03  0.00  0.96  0.00  0.00  0.00  0.00  0.00
  WS02004407WS02004409    1.00   0.04  0.00  0.00  0.95  0.01  0.00  0.00  0.95  0.00
  WS02004409WS02004410    1.00   0.04  0.00  0.00  0.96  0.00  0.00  0.00  0.00  0.00
  WS02004410WS02004411    1.00   0.04  0.00  0.00  0.96  0.00  0.00  0.00  0.00  0.00
  WS02004411WS02004412    1.00   0.04  0.00  0.00  0.96  0.00  0.00  0.00  0.00  0.00
  WS02004412WS02004413    1.00   0.04  0.00  0.00  0.96  0.00  0.00  0.00  0.00  0.00
  WS02004413WS02003067    1.00   0.04  0.01  0.00  0.00  0.00  0.95  0.00  0.00  0.00
  WS02006109WS02006110    1.00   0.00  0.01  0.00  0.98  0.00  0.01  0.00  0.00  0.00
  WS02006110WS02006113    1.00   0.01  0.01  0.00  0.98  0.00  0.00  0.00  0.00  0.00
  WS02006111WS02006112    1.00   0.02  0.00  0.00  0.98  0.00  0.00  0.00  0.98  0.00
  WS02006112WS02006115    1.00   0.02  0.00  0.00  0.97  0.00  0.00  0.00  0.00  0.00
  WS02006113WS02006111    1.00   0.02  0.00  0.00  0.00  0.98  0.00  0.00  0.11  0.00
  WS02006115WS02006116    1.00   0.02  0.00  0.00  0.97  0.00  0.00  0.01  0.00  0.00
  WS02006116WS02004401    1.00   0.02  0.00  0.00  0.98  0.00  0.00  0.00  0.00  0.00
  WS02006228WS02006109    1.00   0.00  0.00  0.00  1.00  0.00  0.00  0.00  0.00  0.00
  WS02006229WS02006228    1.00   0.00  0.00  0.00  0.99  0.00  0.00  0.01  0.00  0.00
  WS02006230WS02006229    1.00   0.00  0.00  0.00  0.99  0.00  0.00  0.01  0.00  0.00
  WS02006231WS02006230    1.00   0.00  0.00  0.00  0.24  0.00  0.75  0.00  0.00  0.00
  WS02006232WS02006231    1.00   0.00  0.00  0.00  0.99  0.00  0.01  0.00  0.00  0.00
  WS02006234WS02006232    1.00   0.00  0.00  0.00  1.00  0.00  0.00  0.00  0.39  0.00
  WS02006235WS02006234    1.00   0.00  0.00  0.00  0.56  0.00  0.44  0.00  0.00  0.00
  WS02006238WS02006235    1.00   0.00  0.00  0.00  1.00  0.00  0.00  0.00  0.00  0.00
  WS02006239WS02006238    1.00   0.00  0.00  0.00  1.00  0.00  0.00  0.00  0.53  0.00
  WS02006240WS02006239    1.00   0.00  0.00  0.00  0.42  0.00  0.00  0.58  0.02  0.00
  WS02006242WS02006240    1.00   0.00  0.00  0.00  1.00  0.00  0.00  0.00  0.00  0.00
  WS02006243WS02006242    1.00   0.00  0.00  0.00  0.99  0.00  0.00  0.00  0.68  0.00
  WS02006245WS02006243    1.00   0.00  0.00  0.00  0.47  0.00  0.00  0.52  0.00  0.00
  WS02006247WS02006245    1.00   0.00  0.00  0.00  0.99  0.00  0.00  0.01  0.00  0.00
  WS02006248WS02006247    1.00   0.00  0.00  0.00  0.99  0.00  0.00  0.01  0.18  0.00
  WS02006249WS02006248    1.00   0.00  0.00  0.00  0.31  0.00  0.69  0.00  0.00  0.00
  WS02006251WS02006249    1.00   0.00  0.00  0.00  1.00  0.00  0.00  0.00  0.71  0.00
  WS02006252WS02006251    1.00   0.00  0.73  0.00  0.21  0.00  0.06  0.00  0.00  0.00
  WS02006256WS02006235    1.00   0.00  0.00  0.00  0.99  0.00  0.00  0.00  0.00  0.00
  WSF200WS02003060        1.00   0.00  0.06  0.00  0.51  0.43  0.00  0.00  0.67  0.00
  YS02001580YS02001583    1.00   0.20  0.58  0.00  0.23  0.00  0.00  0.00  0.67  0.00
  YS02001583YS02001586    1.00   0.41  0.31  0.00  0.28  0.00  0.00  0.00  0.67  0.00
  YS02001586YS02001590    1.00   0.13  0.00  0.00  0.44  0.04  0.00  0.39  0.33  0.00
  YS02001590YS02001593    1.00   0.13  0.01  0.00  0.15  0.00  0.71  0.00  0.00  0.00
  YS02001593YS02001596    1.00   0.13  0.00  0.00  0.17  0.01  0.00  0.68  0.02  0.00
  YS02001596YS02001600    1.00   0.14  0.00  0.00  0.23  0.01  0.00  0.62  0.03  0.00
  YS02001600YS02001601    1.00   0.13  0.01  0.00  0.86  0.00  0.00  0.00  0.58  0.00
  YS02001601YS02001602    1.00   0.13  0.01  0.00  0.87  0.00  0.00  0.00  0.00  0.00
  YS02001602YS02001605    1.00   0.13  0.00  0.00  0.86  0.00  0.00  0.00  0.00  0.00
  YS02001605YS02001607    1.00   0.14  0.00  0.00  0.86  0.00  0.00  0.00  0.00  0.00
  YS02001607YS02001610    1.00   0.13  0.01  0.00  0.86  0.00  0.00  0.00  0.01  0.00
  YS02001610YS02001613    1.00   0.13  0.00  0.00  0.87  0.00  0.00  0.00  0.00  0.00
  YS02001613YS02001616    1.00   0.13  0.00  0.00  0.87  0.00  0.00  0.00  0.00  0.00
  YS02001616YS02001619    1.00   0.13  0.00  0.00  0.87  0.00  0.00  0.00  0.00  0.00
  YS02001619YS02001622    1.00   0.13  0.00  0.00  0.87  0.00  0.00  0.00  0.28  0.00
  YS02001622YS02001625    1.00   0.13  0.00  0.00  0.87  0.00  0.00  0.00  0.03  0.00
  YS02001625YS02001629    1.00   0.13  0.04  0.00  0.20  0.00  0.63  0.00  0.00  0.00
  YS02001629YS02163301    1.00   0.15  0.01  0.00  0.84  0.00  0.00  0.00  0.00  0.00
  YS02001633YS02163601    1.00   0.00  0.01  0.00  0.99  0.00  0.00  0.00  0.14  0.00
  YS02001641YS02001644    1.00   0.00  0.01  0.00  0.99  0.00  0.00  0.00  0.00  0.00
  YS02001644YS02001647    1.00   0.00  0.16  0.00  0.84  0.00  0.00  0.00  0.00  0.00
  YS02001647YS02001649    1.00   0.00  0.16  0.00  0.57  0.27  0.00  0.00  0.56  0.00
  YS02001649YS02001757    1.00   0.00  0.00  0.00  0.71  0.29  0.00  0.00  0.44  0.00
  YS02001652YS02001649    1.00   0.00  0.00  0.00  0.97  0.03  0.00  0.00  0.72  0.00
  YS02001655YS02001652    1.00   0.00  0.00  0.00  0.22  0.01  0.00  0.77  0.03  0.00
  YS02001658YS02001655    1.00   0.00  0.14  0.00  0.70  0.16  0.00  0.00  0.65  0.00
  YS02001661YS02001658    1.00   0.14  0.00  0.00  0.54  0.33  0.00  0.00  0.69  0.00
  YS02001664YS02001661    1.00   0.13  0.00  0.00  0.76  0.11  0.00  0.00  0.85  0.00
  YS02001745YS02001748    1.00   0.00  0.00  0.00  0.15  0.01  0.00  0.85  0.06  0.00
  YS02001748YS02001751    1.00   0.00  0.00  0.00  0.86  0.14  0.00  0.00  0.76  0.00
  YS02001751YS02001754    1.00   0.00  0.00  0.00  0.20  0.00  0.00  0.80  0.02  0.00
  YS02001754YS02001757    1.00   0.00  0.00  0.00  1.00  0.00  0.00  0.00  0.79  0.00
  YS02001757CaochengTiaoxuchi    1.00   0.00  0.00  0.00  0.98  0.02  0.00  0.00  0.77  0.00
  YS02001759YS02001757    1.00   0.00  0.00  0.00  0.99  0.01  0.00  0.00  0.60  0.00
  YS02001762YS02001759    1.00   0.00  0.00  0.00  1.00  0.00  0.00  0.00  0.03  0.00
  YS02001765YS02001762    1.00   0.00  0.00  0.00  1.00  0.00  0.00  0.00  0.71  0.00
  YS02001767YS02001765    1.00   0.00  0.00  0.00  1.00  0.00  0.00  0.00  0.00  0.00
  YS02001770YS02001767    1.00   0.00  0.00  0.00  1.00  0.00  0.00  0.00  0.00  0.00
  YS02001774YS02001770    1.00   0.00  0.13  0.00  0.71  0.00  0.15  0.00  0.02  0.00
  YS02001779YS02001774    1.00   0.00  0.00  0.00  1.00  0.00  0.00  0.00  0.76  0.00
  YS02001783YS02001784    1.00   0.00  0.17  0.00  0.83  0.00  0.00  0.00  0.55  0.00
  YS02001784YS02001785    1.00   0.00  0.00  0.00  1.00  0.00  0.00  0.00  0.15  0.00
  YS02001786YS02001788    1.00   0.00  0.00  0.00  0.79  0.21  0.00  0.00  0.00  0.00
  YS02001788YS02001790    1.00   0.00  0.00  0.00  0.21  0.79  0.00  0.00  0.78  0.00
  YS02001790YS02001791    1.00   0.00  0.00  0.00  0.01  0.99  0.00  0.00  0.17  0.00
  YS02001791YS02001793    1.00   0.00  0.00  0.00  0.00  1.00  0.00  0.00  0.01  0.00
  YS02001793JiankangQianchi    1.00   0.00  0.00  0.00  0.95  0.05  0.00  0.00  0.98  0.00
  YS02001882YS02001884    1.00   0.15  0.01  0.00  0.85  0.00  0.00  0.00  0.00  0.00
  YS02001884YS02001887    1.00   0.06  0.05  0.00  0.89  0.00  0.00  0.00  0.00  0.00
  YS02001887YS02001890    1.00   0.00  0.00  0.00  0.97  0.00  0.03  0.00  0.00  0.00
  YS02001890YS02001895    1.00   0.00  0.15  0.00  0.84  0.00  0.00  0.00  0.00  0.00
  YS02001895YS02001898    1.00   0.16  0.00  0.00  0.83  0.00  0.01  0.00  0.00  0.00
  YS02001898YS02001901    1.00   0.16  0.00  0.00  0.84  0.00  0.00  0.00  0.01  0.00
  YS02001901YS02001904    1.00   0.16  0.00  0.00  0.84  0.00  0.00  0.00  0.00  0.00
  YS02001904YS02001907    1.00   0.00  0.15  0.00  0.84  0.00  0.00  0.00  0.00  0.00
  YS02001907YS02006553    1.00   0.00  0.02  0.00  0.98  0.00  0.00  0.00  0.00  0.00
  YS02001910YS02001907    1.00   0.00  0.00  0.00  0.97  0.00  0.00  0.03  0.12  0.00
  YS02001915YS02001910    1.00   0.00  0.00  0.00  0.97  0.03  0.00  0.00  0.13  0.00
  YS02001918YS02001915    1.00   0.00  0.01  0.00  0.98  0.02  0.00  0.00  0.72  0.00
  YS02001920YS02001918    1.00   0.00  0.01  0.00  0.99  0.00  0.00  0.00  0.00  0.00
  YS02001923YS02001920    1.00   0.00  0.00  0.00  1.00  0.00  0.00  0.00  0.90  0.00
  YS02001926YS02001923    1.00   0.00  0.07  0.00  0.08  0.00  0.85  0.00  0.00  0.00
  YS02001929YS02001926    1.00   0.00  0.13  0.00  0.87  0.00  0.00  0.00  0.80  0.00
  YS02006553YS02006556    1.00   0.01  0.00  0.00  0.99  0.00  0.00  0.00  0.03  0.00
  YS02006556YS02006558    1.00   0.00  0.00  0.00  1.00  0.00  0.00  0.00  0.00  0.00
  YS02006558YS02006561    1.00   0.17  0.00  0.00  0.07  0.76  0.00  0.00  0.18  0.00
  YS02006561YS02001783    1.00   0.17  0.00  0.00  0.11  0.73  0.00  0.00  0.66  0.00
  YS02163301YS02001633    1.00   0.00  0.15  0.00  0.85  0.00  0.00  0.00  0.00  0.00
  YS02163601YS02164001    1.00   0.00  0.08  0.00  0.92  0.00  0.00  0.00  0.00  0.00
  YS02164001YS02001641    1.00   0.01  0.07  0.00  0.92  0.00  0.00  0.00  0.05  0.00
  
  
  *************************
  Conduit Surcharge Summary
  *************************
  
  ----------------------------------------------------------------------------
                                                           Hours        Hours 
                         --------- Hours Full --------   Above Full   Capacity
  Conduit                Both Ends  Upstream  Dnstream   Normal Flow   Limited
  ----------------------------------------------------------------------------
  WS02003072WS02003073        0.01      0.01      0.01      1.60         0.01
  WS02004403WS02004404        0.01      0.01      0.12      0.01         0.01
  WS02004404WS02004405        0.01      0.12      0.01      2.38         0.01
  WS02004405WS02004406        0.01      0.01      0.01      1.52         0.01
  WS02006109WS02006110        1.62      1.62      1.90      1.63         0.01
  WS02006110WS02006113        0.01      0.01      1.89      0.01         0.01
  WS02006111WS02006112        0.01      0.01      1.96      0.01         0.01
  WS02006112WS02006115        0.01      0.01      1.57      0.01         0.01
  WS02006228WS02006109        1.88      1.90      1.88      2.07         1.88
  WS02006229WS02006228        1.87      1.88      1.87      1.99         1.87
  WS02006230WS02006229        1.91      1.93      1.91      2.87         1.91
  WS02006231WS02006230        1.62      1.62      1.64      2.64         0.01
  WS02006232WS02006231        1.63      1.63      1.90      1.66         0.01
  WS02006234WS02006232        1.87      1.87      1.90      1.64         1.64
  WS02006235WS02006234        1.69      1.69      1.88      2.51         0.01
  WS02006238WS02006235        1.89      1.89      1.90      0.01         0.01
  WS02006239WS02006238        1.89      1.90      1.89      1.96         1.74
  WS02006240WS02006239        1.88      1.88      1.88      1.96         1.60
  WS02006242WS02006240        1.88      1.88      1.91      2.02         0.01
  WS02006243WS02006242        1.87      1.87      1.89      0.01         0.01
  WS02006245WS02006243        1.87      1.87      1.87      0.36         0.49
  WS02006247WS02006245        1.87      1.87      1.87      2.09         1.86
  WS02006248WS02006247        1.86      1.86      1.87      0.01         0.01
  WS02006249WS02006248        1.86      1.86      1.86      2.08         0.01
  WS02006251WS02006249        1.86      1.86      1.86      2.03         1.85
  WS02006252WS02006251        2.06      2.06      2.06      2.06         0.01
  WS02006256WS02006235        2.58      2.59      3.71      1.98         0.01
  YS02001580YS02001583        0.77      0.78      0.85      0.01         0.01
  YS02001583YS02001586        0.79      0.79      0.98      0.01         0.01
  YS02001586YS02001590        0.99      0.99      1.07      0.01         0.01
  YS02001590YS02001593        1.08      1.08      1.10      1.15         0.01
  YS02001593YS02001596        1.09      1.09      1.21      0.01         0.01
  YS02001596YS02001600        1.26      1.26      1.39      0.01         0.01
  YS02001600YS02001601        1.47      1.47      1.70      0.01         0.01
  YS02001601YS02001602        1.63      1.63      1.73      1.38         0.01
  YS02001602YS02001605        1.59      1.59      1.63      2.37         0.01
  YS02001605YS02001607        1.56      1.59      1.56      1.68         1.56
  YS02001607YS02001610        1.08      1.08      1.11      0.01         0.01
  YS02001610YS02001613        1.07      1.07      1.11      0.01         0.01
  YS02001613YS02001616        1.03      1.03      1.07      0.01         0.01
  YS02001616YS02001619        1.01      1.01      1.03      0.01         0.01
  YS02001619YS02001622        1.01      1.01      1.01      1.04         0.93
  YS02001622YS02001625        1.01      1.01      1.22      0.01         0.01
  YS02001625YS02001629        0.95      0.95      1.22      0.01         0.01
  YS02001629YS02163301        1.23      1.23      1.24      0.02         0.12
  YS02001633YS02163601        1.26      1.26      1.30      0.32         0.30
  YS02001641YS02001644        1.19      1.21      1.19      1.75         1.17
  YS02001644YS02001647        0.96      0.96      1.19      0.04         0.01
  YS02001647YS02001649        0.96      0.96      1.13      0.01         0.01
  YS02001649YS02001757        1.12      1.13      1.21      0.05         0.06
  YS02001652YS02001649        0.92      0.92      1.13      0.01         0.01
  YS02001655YS02001652        0.60      0.60      0.89      0.01         0.01
  YS02001658YS02001655        0.29      0.29      0.61      0.01         0.01
  YS02001661YS02001658        0.01      0.01      0.29      0.01         0.01
  YS02001664YS02001661        0.01      0.01      0.06      0.01         0.01
  YS02001745YS02001748        0.01      0.01      0.20      0.01         0.01
  YS02001748YS02001751        0.24      0.24      0.43      0.01         0.01
  YS02001751YS02001754        0.43      0.43      0.76      0.01         0.01
  YS02001754YS02001757        0.83      0.83      1.21      0.01         0.01
  YS02001757CaochengTiaoxuchi        1.16      1.21      1.66      0.42         0.35
  YS02001759YS02001757        1.11      1.11      1.21      0.01         0.02
  YS02001762YS02001759        1.07      1.07      1.11      0.01         0.02
  YS02001765YS02001762        1.01      1.01      1.07      0.01         0.01
  YS02001767YS02001765        0.96      0.96      1.01      0.01         0.02
  YS02001770YS02001767        0.96      0.96      0.96      0.66         0.63
  YS02001774YS02001770        0.93      0.93      1.04      0.01         0.01
  YS02001779YS02001774        0.73      0.73      1.04      0.01         0.01
  YS02001783YS02001784        0.64      0.67      0.64      0.83         0.64
  YS02001784YS02001785        0.53      0.64      0.53      1.15         0.53
  YS02001786YS02001788        0.01      0.53      0.01      0.97         0.01
  YS02001790YS02001791        0.01      0.01      0.01      0.62         0.01
  YS02001793JiankangQianchi        0.01      0.01      7.61      0.01         0.01
  YS02001882YS02001884        0.60      0.60      0.61      0.01         0.01
  YS02001884YS02001887        0.64      0.64      0.66      0.01         0.01
  YS02001887YS02001890        0.67      0.67      0.68      0.14         0.01
  YS02001890YS02001895        0.59      0.59      0.70      0.01         0.01
  YS02001895YS02001898        0.58      0.58      0.59      0.01         0.01
  YS02001898YS02001901        0.59      0.59      0.64      0.01         0.01
  YS02001901YS02001904        0.63      0.63      0.64      0.01         0.01
  YS02001904YS02001907        0.63      0.63      0.94      0.01         0.01
  YS02001907YS02006553        1.17      1.17      1.25      0.01         0.01
  YS02001910YS02001907        0.70      0.70      0.90      0.01         0.01
  YS02001915YS02001910        0.60      0.60      0.70      0.01         0.01
  YS02001918YS02001915        0.51      0.51      0.60      0.01         0.01
  YS02001920YS02001918        0.51      0.51      0.52      0.01         0.01
  YS02001923YS02001920        0.46      0.46      0.52      0.01         0.01
  YS02001926YS02001923        0.11      0.11      0.15      0.01         0.01
  YS02001929YS02001926        0.01      0.01      0.15      0.01         0.01
  YS02006553YS02006556        0.80      0.80      0.94      0.01         0.01
  YS02006556YS02006558        0.85      0.85      0.97      0.01         0.01
  YS02006558YS02006561        0.55      0.79      0.55      1.08         0.55
  YS02006561YS02001783        0.47      0.47      0.67      0.01         0.01
  YS02163301YS02001633        1.24      1.24      1.27      0.01         0.01
  YS02163601YS02164001        1.22      1.22      1.30      0.04         0.01
  YS02164001YS02001641        1.21      1.22      1.21      0.87         0.83
  
  
  ***************
  Pumping Summary
  ***************
  
  ---------------------------------------------------------------------------------------------------------
                                                  Min       Avg       Max     Total     Power    % Time Off
                        Percent   Number of      Flow      Flow      Flow    Volume     Usage    Pump Curve
  Pump                 Utilized   Start-Ups       LPS       LPS       LPS  10^6 ltr     Kw-hr    Low   High
  ---------------------------------------------------------------------------------------------------------
  CC-R1                   25.30           2      0.00    683.00    683.00     4.925     92.31    0.0   19.8
  CC-R2                   24.34           2      0.00    683.00    683.00     4.738     88.85    0.0   20.6
  CC-S1                   26.64           2      0.00    200.00    200.00     1.519      8.35    0.0    0.0
  CC-S2                   25.97           2      0.00    200.00    200.00     1.480      8.13    0.0    0.0
  JK-R1                    9.14           5      0.00   1000.00   1000.00     2.605     24.72    0.0    0.0
  JK-R2                    0.17           1      0.00   1000.00   1000.00     0.047      0.36    0.0    0.0
  JK-S                    25.03           3      0.00    300.00    300.00     2.140     34.09    0.0    0.0
  

  Analysis begun on:  Thu Jan 16 14:24:28 2025
  Analysis ended on:  Thu Jan 16 14:24:29 2025
  Total elapsed time: 00:00:01