
  EPA STORM WATER MANAGEMENT MODEL - VERSION 5.2 (Build 5.2.4)
  PYSWMM TOOLKIT API - VERSION v1.0 (2023-11-27)
  ------------------------------------------------------------

  WARNING 04: minimum elevation drop used for Conduit WS02004404WS02004405
  WARNING 03: negative offset ignored for Link YS02001904YS02001907
  
  ****************
  Analysis Options
  ****************
  Flow Units ............... LPS
  Process Models:
    Rainfall/Runoff ........ YES
    RDII ................... NO
    Snowmelt ............... NO
    Groundwater ............ NO
    Flow Routing ........... YES
    Ponding Allowed ........ NO
    Water Quality .......... NO
  Infiltration Method ...... HORTON
  Flow Routing Method ...... DYNWAVE
  Surcharge Method ......... EXTRAN
  Starting Date ............ 08/28/2015 08:00:00
  Ending Date .............. 08/28/2015 16:00:00
  Antecedent Dry Days ...... 8.0
  Report Time Step ......... 00:01:00
  Wet Time Step ............ 00:01:00
  Dry Time Step ............ 00:01:00
  Routing Time Step ........ 30.00 sec
  Variable Time Step ....... YES
  Maximum Trials ........... 8
  Number of Threads ........ 4
  Head Tolerance ........... 0.001500 m
  
  
  **************************        Volume         Depth
  Runoff Quantity Continuity     hectare-m            mm
  **************************     ---------       -------
  Total Precipitation ......         1.839        55.437
  Evaporation Loss .........         0.000         0.000
  Infiltration Loss ........         0.097         2.935
  Surface Runoff ...........         1.709        51.518
  Final Storage ............         0.033         0.995
  Continuity Error (%) .....        -0.020
  
  
  **************************        Volume        Volume
  Flow Routing Continuity        hectare-m      10^6 ltr
  **************************     ---------     ---------
  Dry Weather Inflow .......         0.025         0.248
  Wet Weather Inflow .......         1.709        17.088
  Groundwater Inflow .......         0.000         0.000
  RDII Inflow ..............         0.000         0.000
  External Inflow ..........         0.083         0.825
  External Outflow .........         1.391        13.907
  Flooding Loss ............         0.437         4.372
  Evaporation Loss .........         0.000         0.000
  Exfiltration Loss ........         0.000         0.000
  Initial Stored Volume ....         0.243         2.431
  Final Stored Volume ......         0.236         2.361
  Continuity Error (%) .....        -0.231
  
  
  *************************
  Highest Continuity Errors
  *************************
  Node YS02001583 (-9.12%)
  Node YS02001884 (4.86%)
  Node YS02001774 (1.03%)
  
  
  ***************************
  Time-Step Critical Elements
  ***************************
  Link WS02004404WS02004405 (37.72%)
  Link WS02006238WS02006235 (14.46%)
  Link YS02001791YS02001793 (11.98%)
  Link WS02003066WSF200 (10.73%)
  Link YS02006556YS02006558 (9.90%)
  
  
  ********************************
  Highest Flow Instability Indexes
  ********************************
  Link WS02006113WS02006111 (27)
  Link WS02006238WS02006235 (22)
  Link WS02006111WS02006112 (21)
  Link WS02006110WS02006113 (18)
  Link WS02006235WS02006234 (17)
  
  
  *********************************
  Most Frequent Nonconverging Nodes
  *********************************
  Node CC-1 (11.81%)
  Node CC-2 (11.81%)
  Node JK-1 (11.81%)
  Node JK-2 (11.81%)
  Node WSC (11.81%)
  
  
  *************************
  Routing Time Step Summary
  *************************
  Minimum Time Step           :     0.01 sec
  Average Time Step           :     3.51 sec
  Maximum Time Step           :     6.43 sec
  % of Time in Steady State   :     0.00
  Average Iterations per Step :     3.23
  % of Steps Not Converging   :    11.81
  Time Step Frequencies       :
     30.000 - 13.228 sec      :     0.00 %
     13.228 -  5.833 sec      :    21.67 %
      5.833 -  2.572 sec      :    30.64 %
      2.572 -  1.134 sec      :    37.55 %
      1.134 -  0.500 sec      :    10.14 %
  
  
  ***************************
  Subcatchment Runoff Summary
  ***************************
  
  ------------------------------------------------------------------------------------------------------------------------------
                            Total      Total      Total      Total     Imperv       Perv      Total       Total     Peak  Runoff
                           Precip      Runon       Evap      Infil     Runoff     Runoff     Runoff      Runoff   Runoff   Coeff
  Subcatchment                 mm         mm         mm         mm         mm         mm         mm    10^6 ltr      LPS
  ------------------------------------------------------------------------------------------------------------------------------
  sub60                     55.44       0.00       0.00       1.79      47.58       4.87      52.44        0.69   422.04   0.946
  sub61                     55.44       0.00       0.00       2.59      44.88       6.84      51.72        0.95   582.42   0.933
  sub62                     55.44       0.00       0.00       1.19      49.71       3.24      52.96        1.45   822.79   0.955
  sub63                     55.44       0.00       0.00       4.74      38.39      11.34      49.72        1.13   640.64   0.897
  sub64                     55.44       0.00       0.00       2.40      45.91       5.92      51.83        1.24   660.02   0.935
  sub65                     55.44       0.00       0.00       2.08      46.97       5.13      52.10        1.43   737.82   0.940
  sub66                     55.44       0.00       0.00       5.81      38.28      10.27      48.55        2.26   940.88   0.876
  sub67                     55.44       0.00       0.00       1.15      49.75       3.28      53.04        0.99   643.60   0.957
  sub68                     55.44       0.00       0.00       2.14      46.49       5.62      52.11        1.43   841.05   0.940
  sub69                     55.44       0.00       0.00       1.89      47.01       6.43      53.44        1.98   987.98   0.964
  sub70                     55.44       0.00       0.00       6.21      36.42      12.64      49.07        1.42   532.25   0.885
  sub71                     55.44       0.00       0.00       1.22      49.67       3.22      52.89        1.38   718.58   0.954
  sub72                     55.44       0.00       0.00       1.08      50.15       2.80      52.95        0.73   344.39   0.955
  
  
  ******************
  Node Depth Summary
  ******************
  
  ---------------------------------------------------------------------------------
                                 Average  Maximum  Maximum  Time of Max    Reported
                                   Depth    Depth      HGL   Occurrence   Max Depth
  Node                 Type       Meters   Meters   Meters  days hr:min      Meters
  ---------------------------------------------------------------------------------
  WS02003060           JUNCTION     0.20     0.38     5.32     0  02:34        0.38
  WS02003066           JUNCTION     0.17     0.30     5.85     0  02:33        0.30
  WS02003067           JUNCTION     0.45     0.70     6.02     0  02:33        0.70
  WS02003069           JUNCTION     0.22     0.43     5.01     0  02:35        0.43
  WS02003072           JUNCTION     0.28     0.50     4.87     0  02:36        0.50
  WS02003073           JUNCTION     0.15     0.30     4.36     0  02:37        0.30
  WS02004401           JUNCTION     0.53     0.85     6.85     0  02:32        0.85
  WS02004402           JUNCTION     0.56     0.88     6.84     0  02:32        0.88
  WS02004403           JUNCTION     0.59     0.89     6.82     0  02:29        0.89
  WS02004404           JUNCTION     0.66     0.96     6.81     0  02:32        0.96
  WS02004405           JUNCTION     0.66     0.96     6.81     0  02:32        0.96
  WS02004406           JUNCTION     0.67     0.96     6.79     0  02:30        0.96
  WS02004407           JUNCTION     0.14     0.30     6.61     0  02:30        0.30
  WS02004409           JUNCTION     0.33     0.67     6.44     0  02:30        0.67
  WS02004410           JUNCTION     0.35     0.68     6.40     0  02:33        0.68
  WS02004411           JUNCTION     0.38     0.69     6.37     0  02:31        0.69
  WS02004412           JUNCTION     0.40     0.70     6.34     0  02:34        0.70
  WS02004413           JUNCTION     0.55     0.86     6.33     0  02:34        0.86
  WS02006109           JUNCTION     0.60     1.04     7.66     0  01:54        0.98
  WS02006110           JUNCTION     0.60     1.01     7.59     0  01:54        0.94
  WS02006111           JUNCTION     0.15     0.29     6.99     0  02:16        0.29
  WS02006112           JUNCTION     0.68     1.07     6.95     0  02:24        1.05
  WS02006113           JUNCTION     0.23     0.46     7.35     0  01:56        0.46
  WS02006115           JUNCTION     0.42     0.75     6.89     0  02:29        0.75
  WS02006116           JUNCTION     0.50     0.83     6.87     0  02:29        0.83
  WS02006228           JUNCTION     0.59     1.07     7.72     0  01:54        1.02
  WS02006229           JUNCTION     0.56     1.09     7.79     0  01:54        1.02
  WS02006230           JUNCTION     0.57     1.22     7.97     0  01:54        1.12
  WS02006231           JUNCTION     0.38     0.95     8.08     0  01:54        0.86
  WS02006232           JUNCTION     0.51     1.14     8.18     0  01:54        1.06
  WS02006234           JUNCTION     0.45     1.15     8.30     0  01:54        1.08
  WS02006235           JUNCTION     0.49     1.23     8.40     0  01:54        1.17
  WS02006238           JUNCTION     0.52     1.26     8.41     0  01:54        1.19
  WS02006239           JUNCTION     0.48     1.25     8.46     0  01:54        1.18
  WS02006240           JUNCTION     0.45     1.20     8.50     0  01:54        1.15
  WS02006242           JUNCTION     0.50     1.28     8.54     0  01:54        1.22
  WS02006243           JUNCTION     0.42     1.17     8.59     0  01:54        1.14
  WS02006245           JUNCTION     0.42     1.14     8.62     0  01:54        1.12
  WS02006247           JUNCTION     0.43     1.15     8.65     0  02:34        1.13
  WS02006248           JUNCTION     0.40     1.09     8.67     0  01:54        1.08
  WS02006249           JUNCTION     0.42     1.09     8.69     0  01:53        1.09
  WS02006251           JUNCTION     0.42     1.41     9.08     0  01:54        1.12
  WS02006252           JUNCTION     0.27     1.50     9.74     0  00:00        0.67
  WS02006256           JUNCTION     1.19     2.35     9.28     0  00:00        2.35
  WSF200               JUNCTION     0.14     0.29     5.52     0  02:33        0.29
  YS02001580           JUNCTION     0.14     1.05     9.59     0  01:46        0.77
  YS02001583           JUNCTION     0.17     1.14     9.64     0  01:46        0.81
  YS02001586           JUNCTION     0.27     1.13     9.30     0  01:46        1.13
  YS02001590           JUNCTION     0.39     1.40     9.26     0  01:46        1.37
  YS02001593           JUNCTION     0.32     1.33     9.19     0  01:46        1.28
  YS02001596           JUNCTION     0.43     1.68     9.10     0  01:46        1.65
  YS02001600           JUNCTION     0.52     1.87     9.00     0  01:46        1.86
  YS02001601           JUNCTION     0.71     2.06     8.90     0  01:45        2.06
  YS02001602           JUNCTION     0.61     1.87     8.77     0  01:46        1.87
  YS02001605           JUNCTION     0.57     1.78     8.68     0  01:46        1.77
  YS02001607           JUNCTION     0.54     1.65     8.49     0  01:49        1.64
  YS02001610           JUNCTION     0.58     1.68     8.48     0  01:46        1.68
  YS02001613           JUNCTION     0.54     1.66     8.50     0  01:48        1.65
  YS02001616           JUNCTION     0.48     1.59     8.50     0  01:48        1.58
  YS02001619           JUNCTION     0.46     1.58     8.51     0  01:46        1.57
  YS02001622           JUNCTION     0.45     1.56     8.46     0  01:48        1.55
  YS02001625           JUNCTION     0.69     1.78     8.38     0  01:46        1.78
  YS02001629           JUNCTION     0.58     1.85     8.40     0  01:46        1.85
  YS02001633           JUNCTION     0.66     2.08     8.53     0  01:47        1.99
  YS02001641           JUNCTION     0.62     1.99     8.43     0  01:47        1.93
  YS02001644           JUNCTION     0.61     1.92     8.35     0  01:47        1.92
  YS02001647           JUNCTION     0.40     1.82     8.43     0  01:49        1.73
  YS02001649           JUNCTION     0.45     2.05     8.44     0  01:49        1.92
  YS02001652           JUNCTION     0.34     2.16     8.76     0  01:48        1.75
  YS02001655           JUNCTION     0.25     2.20     9.05     0  01:48        1.54
  YS02001658           JUNCTION     0.18     2.30     9.44     0  01:49        1.26
  YS02001661           JUNCTION     0.18     1.41     8.82     0  01:50        1.05
  YS02001664           JUNCTION     0.07     0.63     8.55     0  01:50        0.45
  YS02001745           JUNCTION     0.08     0.90     8.42     0  01:49        0.85
  YS02001748           JUNCTION     0.16     2.27     9.35     0  01:49        1.27
  YS02001751           JUNCTION     0.21     2.20     9.08     0  01:49        1.44
  YS02001754           JUNCTION     0.29     2.20     8.81     0  01:49        1.66
  YS02001757           JUNCTION     0.46     2.21     8.47     0  01:49        1.95
  YS02001759           JUNCTION     0.41     2.20     8.57     0  01:49        1.94
  YS02001762           JUNCTION     0.40     2.15     8.55     0  01:49        1.93
  YS02001765           JUNCTION     0.38     2.10     8.55     0  01:48        1.90
  YS02001767           JUNCTION     0.37     2.03     8.52     0  01:48        1.89
  YS02001770           JUNCTION     0.39     1.95     8.44     0  01:48        1.92
  YS02001774           JUNCTION     0.45     2.01     8.43     0  01:48        1.98
  YS02001779           JUNCTION     0.28     1.68     8.37     0  01:48        1.68
  YS02001783           JUNCTION     0.32     1.70     7.84     0  01:48        1.22
  YS02001784           JUNCTION     0.32     1.39     7.45     0  01:48        1.11
  YS02001786           JUNCTION     0.27     1.13     7.16     0  01:48        0.90
  YS02001788           JUNCTION     0.19     0.62     6.60     0  01:51        0.62
  YS02001790           JUNCTION     0.23     0.72     6.37     0  01:53        0.71
  YS02001791           JUNCTION     0.14     0.44     5.91     0  01:53        0.43
  YS02001793           JUNCTION     0.07     0.29     5.12     0  01:59        0.27
  YS02001882           JUNCTION     0.39     1.83     8.55     0  01:47        1.65
  YS02001884           JUNCTION     0.48     1.91     8.52     0  01:47        1.74
  YS02001887           JUNCTION     0.55     1.94     8.48     0  01:47        1.81
  YS02001890           JUNCTION     0.58     1.81     8.32     0  01:47        1.81
  YS02001895           JUNCTION     0.36     1.75     8.50     0  01:47        1.56
  YS02001898           JUNCTION     0.37     1.77     8.51     0  01:47        1.56
  YS02001901           JUNCTION     0.48     1.87     8.48     0  01:47        1.68
  YS02001904           JUNCTION     0.46     1.85     8.48     0  01:47        1.63
  YS02001907           JUNCTION     0.76     1.96     8.25     0  01:47        1.96
  YS02001910           JUNCTION     0.57     2.03     8.53     0  01:47        1.96
  YS02001915           JUNCTION     0.39     2.00     8.72     0  01:47        1.90
  YS02001918           JUNCTION     0.23     1.81     8.88     0  01:48        1.81
  YS02001920           JUNCTION     0.31     2.12     9.13     0  01:48        1.84
  YS02001923           JUNCTION     0.18     2.03     9.29     0  01:48        1.56
  YS02001926           JUNCTION     0.20     1.90     9.35     0  01:48        1.36
  YS02001929           JUNCTION     0.12     1.78     9.47     0  01:48        1.12
  YS02006553           JUNCTION     0.77     2.10     8.39     0  01:48        1.97
  YS02006556           JUNCTION     0.74     2.23     8.54     0  01:48        1.94
  YS02006558           JUNCTION     0.78     2.31     8.58     0  01:48        1.98
  YS02006561           JUNCTION     0.20     1.57     8.23     0  01:48        0.88
  YS02163301           JUNCTION     0.60     1.99     8.51     0  01:46        1.91
  YS02163601           JUNCTION     0.68     2.08     8.48     0  01:47        2.01
  YS02164001           JUNCTION     0.61     2.03     8.49     0  01:47        1.93
  CC-1                 OUTFALL      0.00     0.00     0.00     0  00:00        0.00
  CC-2                 OUTFALL      0.00     0.00     0.00     0  00:00        0.00
  JK-1                 OUTFALL      0.00     0.00     0.00     0  00:00        0.00
  JK-2                 OUTFALL      0.00     0.00     0.00     0  00:00        0.00
  WSC                  OUTFALL      0.15     0.30     0.97     0  02:37        0.30
  CC-storage           STORAGE      0.87     1.62     7.12     0  02:19        1.62
  JK-storage           STORAGE      2.20     4.22     5.02     0  01:59        4.13
  
  
  *******************
  Node Inflow Summary
  *******************
  
  -------------------------------------------------------------------------------------------------
                                  Maximum  Maximum                  Lateral       Total        Flow
                                  Lateral    Total  Time of Max      Inflow      Inflow     Balance
                                   Inflow   Inflow   Occurrence      Volume      Volume       Error
  Node                 Type           LPS      LPS  days hr:min    10^6 ltr    10^6 ltr     Percent
  -------------------------------------------------------------------------------------------------
  WS02003060           JUNCTION     16.53   553.61     0  02:34       0.471        4.05       0.047
  WS02003066           JUNCTION      0.00   536.73     0  02:34           0        3.58       0.035
  WS02003067           JUNCTION      0.00   536.75     0  02:34           0        3.59       0.111
  WS02003069           JUNCTION      0.32   553.70     0  02:34     0.00912        4.06       0.083
  WS02003072           JUNCTION      0.00   553.60     0  02:35           0        4.06       0.156
  WS02003073           JUNCTION      1.82   555.32     0  02:36      0.0519         4.1       0.118
  WS02004401           JUNCTION      0.00   538.97     0  02:29           0        3.68       0.270
  WS02004402           JUNCTION      0.00   538.35     0  02:29           0        3.67       0.274
  WS02004403           JUNCTION      0.00   538.18     0  02:32           0        3.66       0.269
  WS02004404           JUNCTION      0.16   538.00     0  02:29     0.00462        3.66       0.238
  WS02004405           JUNCTION      0.04   537.98     0  02:29     0.00109        3.65       0.319
  WS02004406           JUNCTION      0.00   538.06     0  02:32           0        3.64       0.565
  WS02004407           JUNCTION      0.00   537.59     0  02:30           0        3.62       0.023
  WS02004409           JUNCTION      0.00   537.35     0  02:30           0        3.62       0.058
  WS02004410           JUNCTION      0.00   537.14     0  02:30           0        3.61       0.108
  WS02004411           JUNCTION      0.00   537.01     0  02:33           0        3.61       0.141
  WS02004412           JUNCTION      0.00   536.86     0  02:33           0        3.61       0.192
  WS02004413           JUNCTION      0.00   536.89     0  02:33           0         3.6       0.354
  WS02006109           JUNCTION      1.23   548.26     0  01:54      0.0351        3.73       0.246
  WS02006110           JUNCTION      0.00   549.35     0  01:54           0        3.72       0.167
  WS02006111           JUNCTION      0.00   560.43     0  03:16           0        3.71       0.019
  WS02006112           JUNCTION      0.00   543.17     0  02:37           0        3.71       0.535
  WS02006113           JUNCTION      0.00   562.48     0  01:55           0        3.71       0.043
  WS02006115           JUNCTION      0.00   549.48     0  02:24           0        3.69       0.170
  WS02006116           JUNCTION      0.00   540.86     0  02:29           0        3.68       0.046
  WS02006228           JUNCTION      0.00   547.48     0  01:54           0         3.7       0.101
  WS02006229           JUNCTION      0.00   547.04     0  01:54           0         3.7       0.145
  WS02006230           JUNCTION     10.28   553.96     0  01:54       0.293        3.71       0.147
  WS02006231           JUNCTION      0.00   544.96     0  01:54           0        3.41      -0.078
  WS02006232           JUNCTION      0.00   545.37     0  01:54           0        3.42       0.271
  WS02006234           JUNCTION      0.00   546.14     0  01:54           0        3.41      -0.204
  WS02006235           JUNCTION      0.00   546.29     0  01:54           0         3.5       0.244
  WS02006238           JUNCTION      0.00   419.70     0  03:17           0        2.27      -0.142
  WS02006239           JUNCTION      0.00   419.94     0  03:17           0        2.23      -0.086
  WS02006240           JUNCTION      0.00   417.51     0  03:17           0        2.19      -0.074
  WS02006242           JUNCTION      0.00   418.04     0  03:17           0        2.15      -0.049
  WS02006243           JUNCTION      0.00   417.44     0  03:17           0        2.13      -0.164
  WS02006245           JUNCTION      0.00   417.52     0  03:17           0        2.12       0.288
  WS02006247           JUNCTION      0.00   416.76     0  03:17           0        2.12       0.017
  WS02006248           JUNCTION      0.00   417.45     0  03:17           0        2.12       0.084
  WS02006249           JUNCTION      0.00   459.02     0  00:00           0        2.48       0.205
  WS02006251           JUNCTION      0.08   407.81     0  01:54     0.00219        2.48      -0.014
  WS02006252           JUNCTION      0.00   400.00     0  00:00           0        2.47      -0.023
  WS02006256           JUNCTION      0.00   300.00     0  00:00           0        1.88      -0.147
  WSF200               JUNCTION      0.00   536.77     0  02:33           0        3.58       0.009
  YS02001580           JUNCTION      0.00   136.30     0  01:46           0     0.00445       2.497
  YS02001583           JUNCTION      0.00   234.36     0  01:46           0       0.015      -8.355
  YS02001586           JUNCTION    532.25   532.25     0  01:53        1.42        1.43       0.111
  YS02001590           JUNCTION      0.00   318.15     0  02:05           0        1.24      -0.038
  YS02001593           JUNCTION      0.00   318.10     0  02:05           0        1.24       0.001
  YS02001596           JUNCTION      0.00   318.04     0  02:09           0        1.24      -0.008
  YS02001600           JUNCTION      0.00   318.05     0  01:51           0        1.24       0.006
  YS02001601           JUNCTION    987.98  1305.56     0  01:52        1.98        3.22       0.010
  YS02001602           JUNCTION      0.00   557.72     0  01:45           0        2.17       0.018
  YS02001605           JUNCTION      0.00   557.73     0  01:45           0        2.06       0.019
  YS02001607           JUNCTION      0.00   558.05     0  01:45           0        2.06       0.093
  YS02001610           JUNCTION      0.00   543.45     0  01:45           0         2.1       0.100
  YS02001613           JUNCTION      0.00   549.99     0  01:45           0        1.73       0.090
  YS02001616           JUNCTION      0.00   555.19     0  01:45           0        1.73       0.021
  YS02001619           JUNCTION    940.88   955.42     0  01:46        2.26        3.96       0.003
  YS02001622           JUNCTION      0.00   942.95     0  01:46           0        3.92      -0.005
  YS02001625           JUNCTION      0.00  1068.31     0  01:53           0        3.99       0.216
  YS02001629           JUNCTION      0.00   934.78     0  01:46           0        3.27       0.001
  YS02001633           JUNCTION    738.02  1437.73     0  01:47        1.44        4.62       0.070
  YS02001641           JUNCTION      0.00  1436.60     0  01:47           0        4.55       0.058
  YS02001644           JUNCTION    660.06  1913.05     0  01:47        1.25        5.79       0.052
  YS02001647           JUNCTION      0.00  1913.52     0  01:47           0        5.69       0.004
  YS02001649           JUNCTION      0.00  2171.55     0  01:48           0        6.83       0.000
  YS02001652           JUNCTION      0.00   795.20     0  01:51           0        1.13      -0.126
  YS02001655           JUNCTION      0.15   795.19     0  01:51     0.00439        1.13      -0.029
  YS02001658           JUNCTION      0.00   793.57     0  01:51           0        1.13      -0.067
  YS02001661           JUNCTION      0.00   789.55     0  01:50           0        1.13       0.020
  YS02001664           JUNCTION    640.64   640.64     0  01:51        1.13        1.13      -0.013
  YS02001745           JUNCTION    422.04   598.22     0  01:49       0.689       0.691       0.253
  YS02001748           JUNCTION      0.04   742.17     0  01:49     0.00128       0.692      -0.398
  YS02001751           JUNCTION      0.01   535.73     0  01:50    0.000313         0.7       0.083
  YS02001754           JUNCTION      0.26   536.87     0  01:50     0.00741       0.714      -0.173
  YS02001757           JUNCTION      0.00  3413.37     0  01:50           0        9.94       0.031
  YS02001759           JUNCTION    582.46  1369.82     0  01:49        0.95         2.4      -0.017
  YS02001762           JUNCTION      0.00   792.51     0  01:49           0        1.45      -0.016
  YS02001765           JUNCTION      0.00   794.60     0  01:49           0        1.45      -0.007
  YS02001767           JUNCTION      0.54   795.75     0  01:49      0.0152        1.45      -0.018
  YS02001770           JUNCTION    822.94   822.94     0  01:51        1.46         1.5      -0.037
  YS02001774           JUNCTION      0.00   524.04     0  01:48           0      0.0817       1.037
  YS02001779           JUNCTION      0.01   527.82     0  01:48    0.000142      0.0384      -1.373
  YS02001783           JUNCTION      0.00  1159.51     0  01:49           0        3.79       0.006
  YS02001784           JUNCTION      1.06  1160.51     0  01:48      0.0302        3.82       0.012
  YS02001786           JUNCTION      0.06  1160.56     0  01:49      0.0016        3.82       0.018
  YS02001788           JUNCTION      0.07  1161.75     0  01:48     0.00202        3.83       0.008
  YS02001790           JUNCTION      0.15  1167.93     0  01:52     0.00442        3.83       0.029
  YS02001791           JUNCTION      0.00  1282.64     0  01:53           0        3.83      -0.031
  YS02001793           JUNCTION      0.00  1229.10     0  02:03           0        3.83       0.006
  YS02001882           JUNCTION      0.00   119.56     0  01:47           0       0.014       3.813
  YS02001884           JUNCTION      0.00   124.56     0  01:47           0      0.0497       5.106
  YS02001887           JUNCTION    644.05   644.43     0  01:50       0.999        1.03       0.428
  YS02001890           JUNCTION      0.00   643.98     0  01:50           0       0.991       0.493
  YS02001895           JUNCTION      0.00   540.52     0  01:47           0       0.959       0.168
  YS02001898           JUNCTION      0.00   540.72     0  01:47           0       0.958       0.000
  YS02001901           JUNCTION      0.00   541.01     0  01:47           0        0.96       0.338
  YS02001904           JUNCTION      0.00   540.96     0  01:47           0       0.965       0.272
  YS02001907           JUNCTION      0.00  1630.09     0  01:49           0        3.15       0.539
  YS02001910           JUNCTION      0.00  1108.94     0  01:49           0        2.19       0.323
  YS02001915           JUNCTION    718.60  1108.67     0  01:49        1.38        2.24       0.066
  YS02001918           JUNCTION      0.00   578.51     0  01:47           0       0.891       0.030
  YS02001920           JUNCTION      2.87   585.89     0  01:47      0.0818        0.87       0.088
  YS02001923           JUNCTION      0.04   643.78     0  01:47     0.00107       0.771      -0.044
  YS02001926           JUNCTION      0.05  1001.18     0  01:48     0.00149       0.751      -0.058
  YS02001929           JUNCTION    344.39   824.01     0  01:48       0.728       0.734      -0.090
  YS02006553           JUNCTION      0.00   792.20     0  02:07           0        2.38       0.499
  YS02006556           JUNCTION      0.00   792.39     0  02:08           0        2.39       0.327
  YS02006558           JUNCTION    841.93  1180.40     0  01:48        1.46        3.83       0.091
  YS02006561           JUNCTION      0.00  1179.73     0  01:48           0        3.79      -0.004
  YS02163301           JUNCTION      0.00   923.09     0  01:47           0        3.26       0.045
  YS02163601           JUNCTION      0.11  1437.59     0  01:47     0.00313        4.55       0.103
  YS02164001           JUNCTION      0.00  1437.08     0  01:47           0        4.55       0.045
  CC-1                 OUTFALL       0.00   683.00     0  00:00           0        4.01       0.000
  CC-2                 OUTFALL       0.00   683.00     0  00:00           0        3.81       0.000
  JK-1                 OUTFALL       0.00  1000.00     0  00:00           0        1.94       0.000
  JK-2                 OUTFALL       0.00  1000.00     0  00:00           0      0.0484       0.000
  WSC                  OUTFALL       0.00   555.20     0  02:37           0         4.1       0.000
  CC-storage           STORAGE       0.00  3414.65     0  01:50           0        12.2      -0.154
  JK-storage           STORAGE       0.00  1245.76     0  01:58           0        3.98      -0.143
  
  
  **********************
  Node Surcharge Summary
  **********************
  
  Surcharging occurs when water rises above the top of the highest conduit.
  ---------------------------------------------------------------------
                                               Max. Height   Min. Depth
                                   Hours       Above Crown    Below Rim
  Node                 Type      Surcharged         Meters       Meters
  ---------------------------------------------------------------------
  WS02006109           JUNCTION        1.51          0.217        1.603
  WS02006110           JUNCTION        1.36          0.099        1.751
  WS02006112           JUNCTION        1.29          0.066        1.614
  WS02006228           JUNCTION        1.51          0.244        1.956
  WS02006229           JUNCTION        1.52          0.294        2.156
  WS02006230           JUNCTION        1.36          0.144        1.426
  WS02006231           JUNCTION        1.38          0.244        1.286
  WS02006232           JUNCTION        1.54          0.437        1.043
  WS02006234           JUNCTION        1.44          0.426        0.814
  WS02006235           JUNCTION        1.52          0.523        0.767
  WS02006238           JUNCTION        1.53          0.545        0.885
  WS02006239           JUNCTION        1.51          0.507        0.783
  WS02006240           JUNCTION        1.51          0.494        0.896
  WS02006242           JUNCTION        1.52          0.546        0.274
  WS02006243           JUNCTION        1.51          0.458        0.312
  WS02006245           JUNCTION        1.50          0.430        0.420
  WS02006247           JUNCTION        1.50          0.438        0.322
  WS02006248           JUNCTION        1.50          0.365        0.015
  WS02006249           JUNCTION        1.50          0.390        0.000
  WS02006251           JUNCTION        1.39          0.384        0.796
  WS02006252           JUNCTION        1.69          1.100        0.000
  WS02006256           JUNCTION        3.37          2.050        0.000
  YS02001580           JUNCTION        0.53          0.450        0.000
  YS02001583           JUNCTION        0.54          0.500        0.000
  YS02001586           JUNCTION        0.69          0.510        0.000
  YS02001590           JUNCTION        0.76          0.750        0.000
  YS02001593           JUNCTION        0.77          0.713        0.127
  YS02001596           JUNCTION        0.87          0.952        0.118
  YS02001600           JUNCTION        1.02          1.190        0.000
  YS02001601           JUNCTION        1.43          1.440        0.000
  YS02001602           JUNCTION        1.29          1.270        0.000
  YS02001605           JUNCTION        1.22          1.180        0.000
  YS02001607           JUNCTION        0.75          0.646        0.034
  YS02001610           JUNCTION        0.77          0.680        0.000
  YS02001613           JUNCTION        0.74          0.655        0.045
  YS02001616           JUNCTION        0.70          0.590        0.020
  YS02001619           JUNCTION        0.68          0.577        0.033
  YS02001622           JUNCTION        0.68          0.560        0.060
  YS02001625           JUNCTION        0.86          0.780        0.000
  YS02001629           JUNCTION        0.63          0.470        0.000
  YS02001633           JUNCTION        0.89          1.060        0.000
  YS02001641           JUNCTION        0.84          0.989        0.111
  YS02001644           JUNCTION        0.81          0.920        0.000
  YS02001647           JUNCTION        0.60          0.816        0.084
  YS02001649           JUNCTION        0.73          1.050        0.000
  YS02001652           JUNCTION        0.52          1.130        0.000
  YS02001655           JUNCTION        0.35          1.200        0.000
  YS02001658           JUNCTION        0.14          1.300        0.000
  YS02001661           JUNCTION        0.01          0.342        1.048
  YS02001748           JUNCTION        0.04          1.190        0.000
  YS02001751           JUNCTION        0.22          1.200        0.000
  YS02001754           JUNCTION        0.42          1.150        0.000
  YS02001757           JUNCTION        0.80          1.210        0.000
  YS02001759           JUNCTION        0.70          1.203        0.007
  YS02001762           JUNCTION        0.66          1.150        0.000
  YS02001765           JUNCTION        0.62          1.100        0.000
  YS02001767           JUNCTION        0.58          1.030        0.000
  YS02001770           JUNCTION        0.55          0.920        0.000
  YS02001774           JUNCTION        0.64          1.007        0.043
  YS02001779           JUNCTION        0.41          0.680        0.000
  YS02001783           JUNCTION        0.50          0.902        0.698
  YS02001784           JUNCTION        0.47          0.586        0.904
  YS02001786           JUNCTION        0.37          0.326        1.104
  YS02001882           JUNCTION        0.44          0.830        0.000
  YS02001884           JUNCTION        0.45          0.845        0.025
  YS02001887           JUNCTION        0.48          0.888        0.062
  YS02001890           JUNCTION        0.50          0.760        0.000
  YS02001895           JUNCTION        0.43          0.750        0.000
  YS02001898           JUNCTION        0.42          0.740        0.000
  YS02001901           JUNCTION        0.47          0.870        0.000
  YS02001904           JUNCTION        0.46          0.850        0.000
  YS02001907           JUNCTION        0.69          0.950        0.000
  YS02001910           JUNCTION        0.53          1.025        0.075
  YS02001915           JUNCTION        0.44          1.000        0.000
  YS02001918           JUNCTION        0.36          0.810        0.000
  YS02001920           JUNCTION        0.37          1.124        0.016
  YS02001923           JUNCTION        0.01          0.820        0.000
  YS02001926           JUNCTION        0.02          0.900        0.000
  YS02001929           JUNCTION        0.01          0.780        0.000
  YS02006553           JUNCTION        0.70          1.101        0.089
  YS02006556           JUNCTION        0.60          1.188        0.162
  YS02006558           JUNCTION        0.60          1.209        0.191
  YS02006561           JUNCTION        0.32          0.770        0.380
  YS02163301           JUNCTION        0.87          0.991        0.039
  YS02163601           JUNCTION        0.91          1.080        0.000
  YS02164001           JUNCTION        0.84          1.031        0.069
  
  
  *********************
  Node Flooding Summary
  *********************
  
  Flooding refers to all water that overflows a node, whether it ponds or not.
  --------------------------------------------------------------------------
                                                             Total   Maximum
                                 Maximum   Time of Max       Flood    Ponded
                        Hours       Rate    Occurrence      Volume     Depth
  Node                 Flooded       LPS   days hr:min    10^6 ltr    Meters
  --------------------------------------------------------------------------
  WS02006249              1.38    101.31      0  01:54       0.352     0.000
  WS02006252              0.01    245.63      0  00:00       0.000     0.000
  WS02006256              1.74    293.19      0  00:00       0.580     0.000
  YS02001580              0.01     92.66      0  01:46       0.000     0.000
  YS02001583              0.01    209.46      0  01:46       0.000     0.000
  YS02001586              0.41    214.84      0  01:54       0.180     0.000
  YS02001590              0.01      3.31      0  01:46       0.000     0.000
  YS02001600              0.01      0.85      0  01:46       0.000     0.000
  YS02001601              0.62    907.71      0  01:52       1.048     0.000
  YS02001602              0.52     61.98      0  02:06       0.104     0.000
  YS02001605              0.01      4.10      0  01:46       0.000     0.000
  YS02001610              0.44    437.18      0  01:54       0.400     0.000
  YS02001625              0.41   1068.08      0  01:54       0.784     0.000
  YS02001629              0.07    225.37      0  01:46       0.020     0.000
  YS02001633              0.01      4.31      0  01:47       0.000     0.000
  YS02001644              0.10    457.76      0  01:50       0.087     0.000
  YS02001649              0.01     23.45      0  01:49       0.000     0.000
  YS02001652              0.01     78.08      0  01:48       0.000     0.000
  YS02001655              0.01    402.16      0  01:48       0.000     0.000
  YS02001658              0.01    480.63      0  01:49       0.000     0.000
  YS02001748              0.01    443.92      0  01:49       0.000     0.000
  YS02001751              0.01    218.49      0  01:49       0.000     0.000
  YS02001754              0.01     50.35      0  01:49       0.000     0.000
  YS02001757              0.01      8.10      0  01:49       0.000     0.000
  YS02001762              0.01      9.99      0  01:49       0.000     0.000
  YS02001765              0.01     25.12      0  01:48       0.000     0.000
  YS02001767              0.01    101.76      0  01:48       0.000     0.000
  YS02001770              0.01    269.93      0  01:48       0.001     0.000
  YS02001779              0.08    496.93      0  01:48       0.020     0.000
  YS02001882              0.01    114.61      0  01:47       0.000     0.000
  YS02001890              0.10    123.95      0  01:50       0.027     0.000
  YS02001895              0.01     71.15      0  01:47       0.000     0.000
  YS02001898              0.01    172.07      0  01:47       0.000     0.000
  YS02001901              0.01     14.97      0  01:47       0.000     0.000
  YS02001904              0.01     57.41      0  01:47       0.000     0.000
  YS02001907              0.30   1287.70      0  01:49       0.756     0.000
  YS02001915              0.01    226.86      0  01:47       0.000     0.000
  YS02001918              0.01    137.07      0  01:48       0.002     0.000
  YS02001923              0.01    101.75      0  01:48       0.000     0.000
  YS02001926              0.01    724.44      0  01:48       0.005     0.000
  YS02001929              0.01    656.69      0  01:48       0.002     0.000
  YS02163601              0.01     10.09      0  01:47       0.000     0.000
  
  
  **********************
  Storage Volume Summary
  **********************
  
  ------------------------------------------------------------------------------------------------
                         Average    Avg   Evap  Exfil     Maximum    Max    Time of Max    Maximum
                          Volume   Pcnt   Pcnt   Pcnt      Volume   Pcnt     Occurrence    Outflow
  Storage Unit           1000 m³   Full   Loss   Loss     1000 m³   Full    days hr:min        LPS
  ------------------------------------------------------------------------------------------------
  CC-storage               2.426   37.8    0.0    0.0       4.501   70.2       0  02:19    1783.53
  JK-storage               0.111   38.0    0.0    0.0       0.212   72.7       0  01:59    2300.00
  
  
  ***********************
  Outfall Loading Summary
  ***********************
  
  -----------------------------------------------------------
                         Flow       Avg       Max       Total
                         Freq      Flow      Flow      Volume
  Outfall Node           Pcnt       LPS       LPS    10^6 ltr
  -----------------------------------------------------------
  CC-1                  36.01    683.00    683.00       4.010
  CC-2                  34.06    683.00    683.00       3.812
  JK-1                  16.28   1000.00   1000.00       1.941
  JK-2                   0.26   1000.00   1000.00       0.048
  WSC                   99.93    212.79    555.20       4.096
  -----------------------------------------------------------
  System                37.31   3578.79   3366.23      13.907
  
  
  ********************
  Link Flow Summary
  ********************
  
  -----------------------------------------------------------------------------
                                 Maximum  Time of Max   Maximum    Max/    Max/
                                  |Flow|   Occurrence   |Veloc|    Full    Full
  Link                 Type          LPS  days hr:min     m/sec    Flow   Depth
  -----------------------------------------------------------------------------
  1                    CONDUIT    555.20     0  02:37      2.83    0.19    0.30
  WS02003060WS02003069 CONDUIT    553.38     0  02:34      1.64    0.22    0.34
  WS02003066WSF200     CONDUIT    536.77     0  02:33      2.85    0.09    0.22
  WS02003067WS02003066 CONDUIT    536.73     0  02:34      1.21    0.17    0.42
  WS02003069WS02003072 CONDUIT    553.60     0  02:35      1.37    0.27    0.39
  WS02003072WS02003073 CONDUIT    553.49     0  02:36      1.44    1.20    0.37
  WS02004401WS02004402 CONDUIT    538.35     0  02:29      1.23    0.65    0.86
  WS02004402WS02004403 CONDUIT    538.18     0  02:32      1.24    0.77    0.88
  WS02004403WS02004404 CONDUIT    537.84     0  02:29      1.17    0.39    0.93
  WS02004404WS02004405 CONDUIT    537.95     0  02:29      1.43    5.27    0.96
  WS02004405WS02004406 CONDUIT    538.06     0  02:32      1.39    1.06    0.96
  WS02004406WS02004407 CONDUIT    537.59     0  02:30      1.04    0.24    0.63
  WS02004407WS02004409 CONDUIT    537.35     0  02:30      1.56    0.19    0.48
  WS02004409WS02004410 CONDUIT    537.14     0  02:30      1.06    0.69    0.67
  WS02004410WS02004411 CONDUIT    537.01     0  02:33      1.00    0.73    0.69
  WS02004411WS02004412 CONDUIT    536.86     0  02:33      0.95    0.76    0.69
  WS02004412WS02004413 CONDUIT    536.89     0  02:33      0.87    0.36    0.78
  WS02004413WS02003067 CONDUIT    536.75     0  02:34      1.11    0.23    0.59
  WS02006109WS02006110 CONDUIT    549.35     0  01:54      1.09    1.06    1.00
  WS02006110WS02006113 CONDUIT    562.48     0  01:55      1.35    0.51    0.79
  WS02006111WS02006112 CONDUIT    543.17     0  02:37      1.96    0.26    0.67
  WS02006112WS02006115 CONDUIT    549.48     0  02:24      0.87    0.32    0.87
  WS02006113WS02006111 CONDUIT    560.43     0  03:16      2.46    0.67    0.46
  WS02006115WS02006116 CONDUIT    540.86     0  02:29      1.19    0.69    0.76
  WS02006116WS02004401 CONDUIT    538.97     0  02:29      1.22    0.74    0.84
  WS02006228WS02006109 CONDUIT    547.03     0  01:54      1.09    2.39    1.00
  WS02006229WS02006228 CONDUIT    547.48     0  01:54      1.14    1.81    1.00
  WS02006230WS02006229 CONDUIT    547.04     0  01:54      1.42   12.17    1.00
  WS02006231WS02006230 CONDUIT    543.68     0  01:54      1.51    8.25    1.00
  WS02006232WS02006231 CONDUIT    544.96     0  01:54      1.42    1.14    1.00
  WS02006234WS02006232 CONDUIT    545.37     0  01:54      1.42    1.10    1.00
  WS02006235WS02006234 CONDUIT    546.14     0  01:54      1.42    5.76    1.00
  WS02006238WS02006235 CONDUIT    421.35     0  03:17      1.51    0.94    1.00
  WS02006239WS02006238 CONDUIT    419.70     0  03:17      1.10    1.34    1.00
  WS02006240WS02006239 CONDUIT    419.94     0  03:17      1.24    1.32    1.00
  WS02006242WS02006240 CONDUIT    417.51     0  03:17      1.13    1.66    1.00
  WS02006243WS02006242 CONDUIT    418.04     0  03:17      1.40    0.89    1.00
  WS02006245WS02006243 CONDUIT    417.44     0  03:17      1.45    1.23    1.00
  WS02006247WS02006245 CONDUIT    417.52     0  03:17      1.43    3.31    1.00
  WS02006248WS02006247 CONDUIT    416.76     0  03:17      1.44    0.91    1.00
  WS02006249WS02006248 CONDUIT    417.45     0  03:17      1.36    2.29    1.00
  WS02006251WS02006249 CONDUIT    459.02     0  00:00      1.99    1.32    1.00
  WS02006252WS02006251 CONDUIT    407.73     0  01:54     25.30    1.50    1.00
  WS02006256WS02006235 CONDUIT    288.91     0  00:00      4.23    3.06    1.00
  WSF200WS02003060     CONDUIT    537.08     0  02:34      2.06    0.12    0.28
  YS02001580YS02001583 CONDUIT    136.30     0  01:46      0.81    0.53    1.00
  YS02001583YS02001586 CONDUIT    187.92     0  01:46      0.81    0.28    1.00
  YS02001586YS02001590 CONDUIT    318.15     0  02:05      1.27    0.56    1.00
  YS02001590YS02001593 CONDUIT    318.10     0  02:05      1.13    2.00    1.00
  YS02001593YS02001596 CONDUIT    318.04     0  02:09      1.73    0.50    1.00
  YS02001596YS02001600 CONDUIT    318.05     0  01:51      1.21    0.62    1.00
  YS02001600YS02001601 CONDUIT    317.96     0  02:00      1.12    0.55    1.00
  YS02001601YS02001602 CONDUIT    557.72     0  01:45      1.97    2.01    1.00
  YS02001602YS02001605 CONDUIT    557.73     0  01:45      1.97   11.80    1.00
  YS02001605YS02001607 CONDUIT    558.05     0  01:45      1.97    3.06    1.00
  YS02001607YS02001610 CONDUIT    543.45     0  01:45      0.69    0.52    1.00
  YS02001610YS02001613 CONDUIT    549.99     0  01:45      0.70    0.63    1.00
  YS02001613YS02001616 CONDUIT    555.19     0  01:45      0.71    0.48    1.00
  YS02001616YS02001619 CONDUIT    520.85     0  01:46      0.67    0.90    1.00
  YS02001619YS02001622 CONDUIT    942.95     0  01:46      1.24    1.39    1.00
  YS02001622YS02001625 CONDUIT    934.07     0  01:46      1.19    0.50    1.00
  YS02001625YS02001629 CONDUIT    934.78     0  01:46      1.19    0.44    1.00
  YS02001629YS02163301 CONDUIT    923.09     0  01:47      1.18    1.14    1.00
  YS02001633YS02163601 CONDUIT   1437.48     0  01:47      1.83    1.51    1.00
  YS02001641YS02001644 CONDUIT   1437.09     0  01:47      1.83    4.65    1.00
  YS02001644YS02001647 CONDUIT   1913.52     0  01:47      2.44    1.12    1.00
  YS02001647YS02001649 CONDUIT   1891.52     0  01:47      2.41    1.00    1.00
  YS02001649YS02001757 CONDUIT   2167.52     0  01:48      2.76    1.32    1.00
  YS02001652YS02001649 CONDUIT    796.52     0  01:51      1.01    0.39    1.00
  YS02001655YS02001652 CONDUIT    795.20     0  01:51      1.43    0.39    1.00
  YS02001658YS02001655 CONDUIT    795.04     0  01:51      1.99    0.34    1.00
  YS02001661YS02001658 CONDUIT    793.57     0  01:51      2.42    0.31    1.00
  YS02001664YS02001661 CONDUIT    789.55     0  01:50      2.45    0.25    0.81
  YS02001745YS02001748 CONDUIT    742.12     0  01:49      2.33    0.29    0.93
  YS02001748YS02001751 CONDUIT    535.72     0  01:50      1.82    0.27    1.00
  YS02001751YS02001754 CONDUIT    536.61     0  01:50      1.53    0.26    1.00
  YS02001754YS02001757 CONDUIT    537.83     0  01:50      0.68    0.22    1.00
  YS02001757CaochengTiaoxuchi CONDUIT   3414.65     0  01:50      4.35    1.48    1.00
  YS02001759YS02001757 CONDUIT   1371.75     0  01:49      1.75    0.97    1.00
  YS02001762YS02001759 CONDUIT    792.98     0  01:49      1.01    0.91    1.00
  YS02001765YS02001762 CONDUIT    792.51     0  01:49      1.01    0.74    1.00
  YS02001767YS02001765 CONDUIT    794.60     0  01:49      1.01    1.00    1.00
  YS02001770YS02001767 CONDUIT    795.21     0  01:49      1.01    3.15    1.00
  YS02001774YS02001770 CONDUIT    524.04     0  01:48      0.67    0.33    1.00
  YS02001779YS02001774 CONDUIT    527.81     0  01:48      0.67    0.27    1.00
  YS02001783YS02001784 CONDUIT   1159.45     0  01:48      2.31    1.60    1.00
  YS02001784YS02001785 CONDUIT   1160.51     0  01:49      2.31    2.70    1.00
  YS02001786YS02001788 CONDUIT   1161.68     0  01:48      2.48    2.24    0.89
  YS02001788YS02001790 CONDUIT   1167.77     0  01:52      2.71    0.86    0.84
  YS02001790YS02001791 CONDUIT   1282.64     0  01:53      3.43    1.40    0.70
  YS02001791YS02001793 CONDUIT   1229.10     0  02:03      6.77    0.53    0.44
  YS02001793JiankangQianchi CONDUIT   1245.76     0  01:58      2.50    0.10    0.65
  YS02001882YS02001884 CONDUIT    119.56     0  01:47      0.15    0.14    1.00
  YS02001884YS02001887 CONDUIT    124.56     0  01:47      0.16    0.17    1.00
  YS02001887YS02001890 CONDUIT    643.98     0  01:50      0.82    1.10    1.00
  YS02001890YS02001895 CONDUIT    540.52     0  01:47      0.69    0.25    1.00
  YS02001895YS02001898 CONDUIT    540.72     0  01:47      0.69    0.94    1.00
  YS02001898YS02001901 CONDUIT    541.01     0  01:47      0.69    0.35    1.00
  YS02001901YS02001904 CONDUIT    540.96     0  01:47      0.69    0.84    1.00
  YS02001904YS02001907 CONDUIT    539.91     0  01:47      0.69    0.19    1.00
  YS02001907YS02006553 CONDUIT    792.20     0  02:07      0.88    0.93    1.00
  YS02001910YS02001907 CONDUIT   1108.74     0  01:49      1.41    0.63    1.00
  YS02001915YS02001910 CONDUIT   1108.94     0  01:49      1.41    0.55    1.00
  YS02001918YS02001915 CONDUIT    578.51     0  01:47      0.74    0.32    1.00
  YS02001920YS02001918 CONDUIT    583.02     0  01:47      0.74    0.56    1.00
  YS02001923YS02001920 CONDUIT    563.78     0  01:48      0.72    0.25    1.00
  YS02001926YS02001923 CONDUIT    784.51     0  01:48      1.22    1.12    1.00
  YS02001929YS02001926 CONDUIT    556.26     0  01:48      1.19    0.26    1.00
  YS02006553YS02006556 CONDUIT    792.39     0  02:08      1.01    0.68    1.00
  YS02006556YS02006558 CONDUIT    794.04     0  02:08      1.01    0.63    1.00
  YS02006558YS02006561 CONDUIT   1179.73     0  01:48      4.17    2.61    1.00
  YS02006561YS02001783 CONDUIT   1159.51     0  01:49      2.31    0.60    1.00
  YS02163301YS02001633 CONDUIT    922.87     0  01:47      1.18    0.87    1.00
  YS02163601YS02164001 CONDUIT   1437.08     0  01:47      1.83    1.27    1.00
  YS02164001YS02001641 CONDUIT   1436.60     0  01:47      1.83    1.96    1.00
  CC-R1                PUMP       683.00     0  00:00              1.00
  CC-R2                PUMP       683.00     0  00:00              1.00
  CC-S1                PUMP       200.00     0  00:00              1.00
  CC-S2                PUMP       200.00     0  00:00              1.00
  JK-R1                PUMP      1000.00     0  00:00              1.00
  JK-R2                PUMP      1000.00     0  00:00              1.00
  JK-S                 PUMP       300.00     0  00:00              1.00
  
  
  ***************************
  Flow Classification Summary
  ***************************
  
  -------------------------------------------------------------------------------------
                      Adjusted    ---------- Fraction of Time in Flow Class ---------- 
                       /Actual         Up    Down  Sub   Sup   Up    Down  Norm  Inlet 
  Conduit               Length    Dry  Dry   Dry   Crit  Crit  Crit  Crit  Ltd   Ctrl  
  -------------------------------------------------------------------------------------
  1                       1.00   0.00  0.00  0.00  0.00  1.00  0.00  0.00  0.61  0.00
  WS02003060WS02003069    1.00   0.00  0.00  0.00  0.97  0.03  0.00  0.00  0.77  0.00
  WS02003066WSF200        1.00   0.06  0.00  0.00  0.00  0.94  0.00  0.00  0.75  0.00
  WS02003067WS02003066    1.00   0.05  0.01  0.00  0.94  0.00  0.00  0.00  0.00  0.00
  WS02003069WS02003072    1.00   0.00  0.00  0.00  0.99  0.01  0.00  0.00  0.79  0.00
  WS02003072WS02003073    1.00   0.00  0.00  0.00  0.00  0.00  0.00  1.00  0.00  0.00
  WS02004401WS02004402    1.00   0.02  0.00  0.00  0.98  0.00  0.00  0.00  0.00  0.00
  WS02004402WS02004403    1.00   0.02  0.00  0.00  0.98  0.00  0.00  0.00  0.00  0.00
  WS02004403WS02004404    1.00   0.00  0.03  0.00  0.97  0.00  0.00  0.00  0.00  0.00
  WS02004404WS02004405    1.00   0.00  0.00  0.00  1.00  0.00  0.00  0.00  0.01  0.00
  WS02004405WS02004406    1.00   0.00  0.00  0.00  1.00  0.00  0.00  0.00  0.00  0.00
  WS02004406WS02004407    1.00   0.00  0.03  0.00  0.96  0.00  0.00  0.00  0.00  0.00
  WS02004407WS02004409    1.00   0.04  0.00  0.00  0.95  0.01  0.00  0.00  0.95  0.00
  WS02004409WS02004410    1.00   0.04  0.00  0.00  0.96  0.00  0.00  0.00  0.00  0.00
  WS02004410WS02004411    1.00   0.04  0.00  0.00  0.96  0.00  0.00  0.00  0.00  0.00
  WS02004411WS02004412    1.00   0.04  0.00  0.00  0.96  0.00  0.00  0.00  0.00  0.00
  WS02004412WS02004413    1.00   0.04  0.00  0.00  0.96  0.00  0.00  0.00  0.00  0.00
  WS02004413WS02003067    1.00   0.04  0.01  0.00  0.00  0.00  0.95  0.00  0.00  0.00
  WS02006109WS02006110    1.00   0.00  0.01  0.00  0.98  0.00  0.01  0.00  0.00  0.00
  WS02006110WS02006113    1.00   0.01  0.01  0.00  0.98  0.00  0.00  0.00  0.00  0.00
  WS02006111WS02006112    1.00   0.02  0.00  0.00  0.98  0.00  0.00  0.00  0.98  0.00
  WS02006112WS02006115    1.00   0.02  0.00  0.00  0.97  0.00  0.00  0.00  0.00  0.00
  WS02006113WS02006111    1.00   0.02  0.00  0.00  0.00  0.98  0.00  0.00  0.10  0.00
  WS02006115WS02006116    1.00   0.02  0.00  0.00  0.97  0.00  0.00  0.01  0.00  0.00
  WS02006116WS02004401    1.00   0.02  0.00  0.00  0.98  0.00  0.00  0.00  0.00  0.00
  WS02006228WS02006109    1.00   0.00  0.00  0.00  1.00  0.00  0.00  0.00  0.00  0.00
  WS02006229WS02006228    1.00   0.00  0.00  0.00  0.99  0.00  0.00  0.01  0.00  0.00
  WS02006230WS02006229    1.00   0.00  0.00  0.00  0.99  0.00  0.00  0.01  0.00  0.00
  WS02006231WS02006230    1.00   0.00  0.00  0.00  0.20  0.00  0.80  0.00  0.00  0.00
  WS02006232WS02006231    1.00   0.00  0.00  0.00  0.99  0.00  0.01  0.00  0.00  0.00
  WS02006234WS02006232    1.00   0.00  0.00  0.00  1.00  0.00  0.00  0.00  0.43  0.00
  WS02006235WS02006234    1.00   0.00  0.00  0.00  0.51  0.00  0.49  0.00  0.00  0.00
  WS02006238WS02006235    1.00   0.00  0.00  0.00  1.00  0.00  0.00  0.00  0.00  0.00
  WS02006239WS02006238    1.00   0.00  0.00  0.00  1.00  0.00  0.00  0.00  0.58  0.00
  WS02006240WS02006239    1.00   0.00  0.00  0.00  0.37  0.00  0.00  0.62  0.02  0.00
  WS02006242WS02006240    1.00   0.00  0.00  0.00  1.00  0.00  0.00  0.00  0.00  0.00
  WS02006243WS02006242    1.00   0.00  0.00  0.00  0.99  0.00  0.00  0.00  0.72  0.00
  WS02006245WS02006243    1.00   0.00  0.00  0.00  0.43  0.00  0.00  0.57  0.00  0.00
  WS02006247WS02006245    1.00   0.00  0.00  0.00  0.99  0.00  0.00  0.01  0.00  0.00
  WS02006248WS02006247    1.00   0.00  0.00  0.00  0.99  0.00  0.00  0.01  0.18  0.00
  WS02006249WS02006248    1.00   0.00  0.00  0.00  0.26  0.00  0.74  0.00  0.00  0.00
  WS02006251WS02006249    1.00   0.00  0.00  0.00  1.00  0.00  0.00  0.00  0.76  0.00
  WS02006252WS02006251    1.00   0.00  0.78  0.00  0.18  0.00  0.05  0.00  0.57  0.00
  WS02006256WS02006235    1.00   0.00  0.00  0.00  0.99  0.00  0.00  0.00  0.00  0.00
  WSF200WS02003060        1.00   0.00  0.06  0.00  0.55  0.38  0.00  0.00  0.72  0.00
  YS02001580YS02001583    1.00   0.22  0.59  0.00  0.19  0.00  0.00  0.00  0.68  0.00
  YS02001583YS02001586    1.00   0.42  0.33  0.00  0.25  0.00  0.00  0.00  0.68  0.00
  YS02001586YS02001590    1.00   0.13  0.00  0.00  0.42  0.04  0.00  0.41  0.36  0.00
  YS02001590YS02001593    1.00   0.13  0.01  0.00  0.11  0.00  0.75  0.00  0.00  0.00
  YS02001593YS02001596    1.00   0.14  0.00  0.00  0.13  0.01  0.00  0.73  0.02  0.00
  YS02001596YS02001600    1.00   0.14  0.00  0.00  0.20  0.01  0.00  0.65  0.05  0.00
  YS02001600YS02001601    1.00   0.13  0.01  0.00  0.86  0.00  0.00  0.00  0.61  0.00
  YS02001601YS02001602    1.00   0.13  0.01  0.00  0.86  0.00  0.00  0.00  0.00  0.00
  YS02001602YS02001605    1.00   0.14  0.00  0.00  0.86  0.00  0.00  0.00  0.00  0.00
  YS02001605YS02001607    1.00   0.14  0.00  0.00  0.86  0.00  0.00  0.00  0.00  0.00
  YS02001607YS02001610    1.00   0.13  0.01  0.00  0.86  0.00  0.00  0.00  0.01  0.00
  YS02001610YS02001613    1.00   0.13  0.00  0.00  0.87  0.00  0.00  0.00  0.00  0.00
  YS02001613YS02001616    1.00   0.13  0.00  0.00  0.87  0.00  0.00  0.00  0.00  0.00
  YS02001616YS02001619    1.00   0.13  0.00  0.00  0.87  0.00  0.00  0.00  0.00  0.00
  YS02001619YS02001622    1.00   0.13  0.00  0.00  0.87  0.00  0.00  0.00  0.29  0.00
  YS02001622YS02001625    1.00   0.13  0.00  0.00  0.87  0.00  0.00  0.00  0.04  0.00
  YS02001625YS02001629    1.00   0.13  0.05  0.00  0.16  0.00  0.67  0.00  0.00  0.00
  YS02001629YS02163301    1.00   0.16  0.01  0.00  0.83  0.00  0.00  0.00  0.00  0.00
  YS02001633YS02163601    1.00   0.00  0.01  0.00  0.99  0.00  0.00  0.00  0.15  0.00
  YS02001641YS02001644    1.00   0.00  0.01  0.00  0.99  0.00  0.00  0.00  0.00  0.00
  YS02001644YS02001647    1.00   0.00  0.17  0.00  0.83  0.00  0.00  0.00  0.00  0.00
  YS02001647YS02001649    1.00   0.00  0.17  0.00  0.54  0.29  0.00  0.00  0.57  0.00
  YS02001649YS02001757    1.00   0.00  0.00  0.00  0.68  0.31  0.00  0.00  0.49  0.00
  YS02001652YS02001649    1.00   0.00  0.00  0.00  0.97  0.03  0.00  0.00  0.74  0.00
  YS02001655YS02001652    1.00   0.00  0.00  0.00  0.18  0.01  0.00  0.81  0.05  0.00
  YS02001658YS02001655    1.00   0.00  0.14  0.00  0.65  0.20  0.00  0.00  0.68  0.00
  YS02001661YS02001658    1.00   0.14  0.00  0.00  0.49  0.37  0.00  0.00  0.71  0.00
  YS02001664YS02001661    1.00   0.13  0.00  0.00  0.77  0.10  0.00  0.00  0.86  0.00
  YS02001745YS02001748    1.00   0.00  0.00  0.00  0.09  0.01  0.00  0.90  0.05  0.00
  YS02001748YS02001751    1.00   0.00  0.00  0.00  0.82  0.18  0.00  0.00  0.77  0.00
  YS02001751YS02001754    1.00   0.00  0.00  0.00  0.15  0.00  0.00  0.85  0.02  0.00
  YS02001754YS02001757    1.00   0.00  0.00  0.00  1.00  0.00  0.00  0.00  0.84  0.00
  YS02001757CaochengTiaoxuchi    1.00   0.00  0.00  0.00  0.99  0.01  0.00  0.00  0.83  0.00
  YS02001759YS02001757    1.00   0.00  0.00  0.00  1.00  0.00  0.00  0.00  0.61  0.00
  YS02001762YS02001759    1.00   0.00  0.00  0.00  1.00  0.00  0.00  0.00  0.04  0.00
  YS02001765YS02001762    1.00   0.00  0.00  0.00  1.00  0.00  0.00  0.00  0.74  0.00
  YS02001767YS02001765    1.00   0.00  0.00  0.00  1.00  0.00  0.00  0.00  0.00  0.00
  YS02001770YS02001767    1.00   0.00  0.00  0.00  1.00  0.00  0.00  0.00  0.00  0.00
  YS02001774YS02001770    1.00   0.00  0.13  0.00  0.70  0.00  0.16  0.00  0.03  0.00
  YS02001779YS02001774    1.00   0.00  0.00  0.00  1.00  0.00  0.00  0.00  0.79  0.00
  YS02001783YS02001784    1.00   0.00  0.18  0.00  0.82  0.00  0.00  0.00  0.55  0.00
  YS02001784YS02001785    1.00   0.00  0.00  0.00  1.00  0.00  0.00  0.00  0.17  0.00
  YS02001786YS02001788    1.00   0.00  0.00  0.00  0.79  0.21  0.00  0.00  0.00  0.00
  YS02001788YS02001790    1.00   0.00  0.00  0.00  0.21  0.79  0.00  0.00  0.81  0.00
  YS02001790YS02001791    1.00   0.00  0.00  0.00  0.01  0.99  0.00  0.00  0.17  0.00
  YS02001791YS02001793    1.00   0.00  0.00  0.00  0.00  1.00  0.00  0.00  0.01  0.00
  YS02001793JiankangQianchi    1.00   0.00  0.00  0.00  0.97  0.03  0.00  0.00  0.98  0.00
  YS02001882YS02001884    1.00   0.15  0.01  0.00  0.84  0.00  0.00  0.00  0.00  0.00
  YS02001884YS02001887    1.00   0.06  0.05  0.00  0.89  0.00  0.00  0.00  0.00  0.00
  YS02001887YS02001890    1.00   0.00  0.00  0.00  0.97  0.00  0.03  0.00  0.00  0.00
  YS02001890YS02001895    1.00   0.00  0.16  0.00  0.83  0.00  0.00  0.00  0.00  0.00
  YS02001895YS02001898    1.00   0.17  0.00  0.00  0.81  0.00  0.02  0.00  0.00  0.00
  YS02001898YS02001901    1.00   0.17  0.00  0.00  0.83  0.00  0.00  0.00  0.01  0.00
  YS02001901YS02001904    1.00   0.17  0.00  0.00  0.83  0.00  0.00  0.00  0.00  0.00
  YS02001904YS02001907    1.00   0.00  0.16  0.00  0.83  0.00  0.00  0.00  0.00  0.00
  YS02001907YS02006553    1.00   0.00  0.02  0.00  0.98  0.00  0.00  0.00  0.00  0.00
  YS02001910YS02001907    1.00   0.00  0.00  0.00  0.97  0.00  0.00  0.03  0.12  0.00
  YS02001915YS02001910    1.00   0.00  0.00  0.00  0.96  0.03  0.00  0.00  0.16  0.00
  YS02001918YS02001915    1.00   0.00  0.01  0.00  0.98  0.02  0.00  0.00  0.76  0.00
  YS02001920YS02001918    1.00   0.00  0.01  0.00  0.99  0.00  0.00  0.00  0.00  0.00
  YS02001923YS02001920    1.00   0.00  0.00  0.00  1.00  0.00  0.00  0.00  0.93  0.00
  YS02001926YS02001923    1.00   0.00  0.07  0.00  0.06  0.00  0.87  0.00  0.00  0.00
  YS02001929YS02001926    1.00   0.00  0.13  0.00  0.87  0.00  0.00  0.00  0.82  0.00
  YS02006553YS02006556    1.00   0.01  0.00  0.00  0.99  0.00  0.00  0.00  0.03  0.00
  YS02006556YS02006558    1.00   0.00  0.00  0.00  1.00  0.00  0.00  0.00  0.00  0.00
  YS02006558YS02006561    1.00   0.18  0.00  0.00  0.05  0.77  0.00  0.00  0.19  0.00
  YS02006561YS02001783    1.00   0.18  0.00  0.00  0.08  0.74  0.00  0.00  0.69  0.00
  YS02163301YS02001633    1.00   0.00  0.15  0.00  0.85  0.00  0.00  0.00  0.00  0.00
  YS02163601YS02164001    1.00   0.00  0.08  0.00  0.92  0.00  0.00  0.00  0.00  0.00
  YS02164001YS02001641    1.00   0.01  0.07  0.00  0.92  0.00  0.00  0.00  0.06  0.00
  
  
  *************************
  Conduit Surcharge Summary
  *************************
  
  ----------------------------------------------------------------------------
                                                           Hours        Hours 
                         --------- Hours Full --------   Above Full   Capacity
  Conduit                Both Ends  Upstream  Dnstream   Normal Flow   Limited
  ----------------------------------------------------------------------------
  WS02003072WS02003073        0.01      0.01      0.01      1.35         0.01
  WS02004404WS02004405        0.01      0.01      0.01      2.03         0.01
  WS02004405WS02004406        0.01      0.01      0.01      1.28         0.01
  WS02006109WS02006110        1.36      1.36      1.54      1.37         0.01
  WS02006110WS02006113        0.01      0.01      1.53      0.01         0.01
  WS02006111WS02006112        0.01      0.01      1.59      0.01         0.01
  WS02006112WS02006115        0.01      0.01      1.29      0.01         0.01
  WS02006228WS02006109        1.51      1.53      1.51      1.71         1.51
  WS02006229WS02006228        1.51      1.52      1.51      1.63         1.51
  WS02006230WS02006229        1.55      1.56      1.55      2.52         1.55
  WS02006231WS02006230        1.36      1.36      1.38      2.29         0.01
  WS02006232WS02006231        1.38      1.38      1.54      1.39         0.01
  WS02006234WS02006232        1.51      1.51      1.54      1.38         1.39
  WS02006235WS02006234        1.44      1.44      1.52      2.16         0.01
  WS02006238WS02006235        1.52      1.52      1.53      0.01         0.01
  WS02006239WS02006238        1.53      1.53      1.53      1.59         1.42
  WS02006240WS02006239        1.51      1.52      1.51      1.59         1.33
  WS02006242WS02006240        1.51      1.51      1.54      1.65         0.01
  WS02006243WS02006242        1.51      1.51      1.52      0.01         0.01
  WS02006245WS02006243        1.50      1.50      1.51      0.24         0.28
  WS02006247WS02006245        1.50      1.51      1.50      1.73         1.50
  WS02006248WS02006247        1.50      1.50      1.50      0.01         0.01
  WS02006249WS02006248        1.49      1.50      1.49      1.72         0.01
  WS02006251WS02006249        1.49      1.49      1.49      1.66         1.48
  WS02006252WS02006251        1.68      1.68      1.68      1.69         0.01
  WS02006256WS02006235        2.23      2.24      3.36      1.74         0.01
  YS02001580YS02001583        0.53      0.53      0.59      0.01         0.01
  YS02001583YS02001586        0.54      0.54      0.69      0.01         0.01
  YS02001586YS02001590        0.70      0.70      0.76      0.01         0.01
  YS02001590YS02001593        0.77      0.77      0.78      0.82         0.01
  YS02001593YS02001596        0.77      0.77      0.87      0.01         0.01
  YS02001596YS02001600        0.92      0.92      1.02      0.01         0.01
  YS02001600YS02001601        1.08      1.08      1.43      0.01         0.01
  YS02001601YS02001602        1.29      1.29      1.47      1.03         0.01
  YS02001602YS02001605        1.22      1.22      1.29      2.18         0.01
  YS02001605YS02001607        1.17      1.22      1.17      1.38         1.17
  YS02001607YS02001610        0.75      0.75      0.77      0.01         0.01
  YS02001610YS02001613        0.74      0.74      0.77      0.01         0.01
  YS02001613YS02001616        0.70      0.70      0.74      0.01         0.01
  YS02001616YS02001619        0.68      0.68      0.70      0.01         0.01
  YS02001619YS02001622        0.68      0.68      0.68      0.78         0.65
  YS02001622YS02001625        0.68      0.68      0.86      0.01         0.01
  YS02001625YS02001629        0.63      0.63      0.86      0.01         0.01
  YS02001629YS02163301        0.86      0.86      0.87      0.07         0.14
  YS02001633YS02163601        0.89      0.89      0.91      0.35         0.34
  YS02001641YS02001644        0.81      0.84      0.81      1.50         0.80
  YS02001644YS02001647        0.60      0.60      0.81      0.04         0.01
  YS02001647YS02001649        0.60      0.60      0.73      0.01         0.01
  YS02001649YS02001757        0.73      0.73      0.80      0.06         0.05
  YS02001652YS02001649        0.55      0.55      0.73      0.01         0.01
  YS02001655YS02001652        0.35      0.35      0.52      0.01         0.01
  YS02001658YS02001655        0.14      0.14      0.35      0.01         0.01
  YS02001661YS02001658        0.01      0.01      0.14      0.01         0.01
  YS02001664YS02001661        0.01      0.01      0.02      0.01         0.01
  YS02001745YS02001748        0.01      0.01      0.04      0.01         0.01
  YS02001748YS02001751        0.12      0.12      0.22      0.01         0.01
  YS02001751YS02001754        0.22      0.22      0.42      0.01         0.01
  YS02001754YS02001757        0.47      0.47      0.80      0.01         0.01
  YS02001757CaochengTiaoxuchi        0.76      0.80      1.27      0.32         0.27
  YS02001759YS02001757        0.70      0.70      0.80      0.01         0.01
  YS02001762YS02001759        0.66      0.66      0.70      0.01         0.02
  YS02001765YS02001762        0.62      0.62      0.66      0.01         0.01
  YS02001767YS02001765        0.58      0.58      0.62      0.01         0.03
  YS02001770YS02001767        0.57      0.57      0.58      0.49         0.41
  YS02001774YS02001770        0.55      0.55      0.64      0.01         0.01
  YS02001779YS02001774        0.41      0.41      0.64      0.01         0.01
  YS02001783YS02001784        0.47      0.50      0.47      0.63         0.47
  YS02001784YS02001785        0.37      0.47      0.37      0.86         0.37
  YS02001786YS02001788        0.01      0.37      0.01      0.72         0.01
  YS02001790YS02001791        0.01      0.01      0.01      0.46         0.01
  YS02001793JiankangQianchi        0.01      0.01      7.59      0.01         0.01
  YS02001882YS02001884        0.44      0.44      0.45      0.01         0.01
  YS02001884YS02001887        0.47      0.47      0.48      0.01         0.01
  YS02001887YS02001890        0.50      0.50      0.51      0.06         0.01
  YS02001890YS02001895        0.43      0.43      0.53      0.01         0.01
  YS02001895YS02001898        0.42      0.42      0.43      0.01         0.01
  YS02001898YS02001901        0.43      0.43      0.47      0.01         0.01
  YS02001901YS02001904        0.46      0.46      0.47      0.01         0.01
  YS02001904YS02001907        0.46      0.46      0.71      0.01         0.01
  YS02001907YS02006553        0.87      0.87      0.94      0.01         0.01
  YS02001910YS02001907        0.53      0.53      0.69      0.01         0.01
  YS02001915YS02001910        0.44      0.44      0.53      0.01         0.01
  YS02001918YS02001915        0.36      0.36      0.44      0.01         0.01
  YS02001920YS02001918        0.36      0.36      0.37      0.01         0.01
  YS02001923YS02001920        0.31      0.31      0.37      0.01         0.01
  YS02001926YS02001923        0.01      0.01      0.02      0.01         0.01
  YS02001929YS02001926        0.01      0.01      0.02      0.01         0.01
  YS02006553YS02006556        0.60      0.60      0.70      0.01         0.01
  YS02006556YS02006558        0.66      0.66      0.72      0.01         0.01
  YS02006558YS02006561        0.39      0.60      0.39      0.81         0.39
  YS02006561YS02001783        0.32      0.32      0.50      0.01         0.01
  YS02163301YS02001633        0.87      0.87      0.90      0.01         0.01
  YS02163601YS02164001        0.84      0.84      0.91      0.04         0.01
  YS02164001YS02001641        0.84      0.84      0.84      0.73         0.67
  
  
  ***************
  Pumping Summary
  ***************
  
  ---------------------------------------------------------------------------------------------------------
                                                  Min       Avg       Max     Total     Power    % Time Off
                        Percent   Number of      Flow      Flow      Flow    Volume     Usage    Pump Curve
  Pump                 Utilized   Start-Ups       LPS       LPS       LPS  10^6 ltr     Kw-hr    Low   High
  ---------------------------------------------------------------------------------------------------------
  CC-R1                   20.60           2      0.00    683.00    683.00     4.009     73.76    0.0   25.5
  CC-R2                   19.58           2      0.00    683.00    683.00     3.811     70.09    0.0   26.8
  CC-S1                   22.08           2      0.00    200.00    200.00     1.259      7.35    0.0    0.0
  CC-S2                   21.28           2      0.00    200.00    200.00     1.213      7.08    0.0    0.0
  JK-R1                    6.81           4      0.00   1000.00   1000.00     1.940     18.07    0.0    0.0
  JK-R2                    0.17           1      0.00   1000.00   1000.00     0.047      0.36    0.0    0.0
  JK-S                    21.98           3      0.00    300.00    300.00     1.879     29.13    0.0    0.0
  

  Analysis begun on:  Thu Jan 16 14:24:15 2025
  Analysis ended on:  Thu Jan 16 14:24:16 2025
  Total elapsed time: 00:00:01