
  EPA STORM WATER MANAGEMENT MODEL - VERSION 5.2 (Build 5.2.4)
  PYSWMM TOOLKIT API - VERSION v1.0 (2023-11-27)
  ------------------------------------------------------------

  WARNING 04: minimum elevation drop used for Conduit WS02004404WS02004405
  WARNING 03: negative offset ignored for Link YS02001904YS02001907
  
  ****************
  Analysis Options
  ****************
  Flow Units ............... LPS
  Process Models:
    Rainfall/Runoff ........ YES
    RDII ................... NO
    Snowmelt ............... NO
    Groundwater ............ NO
    Flow Routing ........... YES
    Ponding Allowed ........ NO
    Water Quality .......... NO
  Infiltration Method ...... HORTON
  Flow Routing Method ...... DYNWAVE
  Surcharge Method ......... EXTRAN
  Starting Date ............ 08/28/2015 08:00:00
  Ending Date .............. 08/28/2015 16:00:00
  Antecedent Dry Days ...... 8.0
  Report Time Step ......... 00:01:00
  Wet Time Step ............ 00:01:00
  Dry Time Step ............ 00:01:00
  Routing Time Step ........ 30.00 sec
  Variable Time Step ....... YES
  Maximum Trials ........... 8
  Number of Threads ........ 4
  Head Tolerance ........... 0.001500 m
  
  
  **************************        Volume         Depth
  Runoff Quantity Continuity     hectare-m            mm
  **************************     ---------       -------
  Total Precipitation ......         5.618       169.381
  Evaporation Loss .........         0.000         0.000
  Infiltration Loss ........         0.112         3.371
  Surface Runoff ...........         5.475       165.053
  Final Storage ............         0.033         1.004
  Continuity Error (%) .....        -0.027
  
  
  **************************        Volume        Volume
  Flow Routing Continuity        hectare-m      10^6 ltr
  **************************     ---------     ---------
  Dry Weather Inflow .......         0.025         0.248
  Wet Weather Inflow .......         5.473        54.732
  Groundwater Inflow .......         0.000         0.000
  RDII Inflow ..............         0.000         0.000
  External Inflow ..........         0.083         0.825
  External Outflow .........         2.814        28.145
  Flooding Loss ............         2.804        28.039
  Evaporation Loss .........         0.000         0.000
  Exfiltration Loss ........         0.000         0.000
  Initial Stored Volume ....         0.243         2.431
  Final Stored Volume ......         0.214         2.143
  Continuity Error (%) .....        -0.156
  
  
  *************************
  Highest Continuity Errors
  *************************
  Node YS02001583 (-17.69%)
  Node YS02001884 (4.64%)
  
  
  ***************************
  Time-Step Critical Elements
  ***************************
  Link YS02001791YS02001793 (36.64%)
  Link WS02004404WS02004405 (23.16%)
  Link WS02006238WS02006235 (11.95%)
  Link WS02006235WS02006234 (10.99%)
  Link WS02003066WSF200 (6.52%)
  
  
  ********************************
  Highest Flow Instability Indexes
  ********************************
  Link YS02001602YS02001605 (52)
  Link WS02006238WS02006235 (51)
  Link YS02001605YS02001607 (48)
  Link YS02001607YS02001610 (44)
  Link WS02006113WS02006111 (44)
  
  
  *********************************
  Most Frequent Nonconverging Nodes
  *********************************
  Node CC-1 (30.23%)
  Node CC-2 (30.23%)
  Node JK-1 (30.23%)
  Node JK-2 (30.23%)
  Node WSC (30.23%)
  
  
  *************************
  Routing Time Step Summary
  *************************
  Minimum Time Step           :     0.02 sec
  Average Time Step           :     3.00 sec
  Maximum Time Step           :     6.43 sec
  % of Time in Steady State   :     0.00
  Average Iterations per Step :     4.54
  % of Steps Not Converging   :    30.23
  Time Step Frequencies       :
     30.000 - 13.228 sec      :     0.00 %
     13.228 -  5.833 sec      :    17.11 %
      5.833 -  2.572 sec      :    25.41 %
      2.572 -  1.134 sec      :    51.03 %
      1.134 -  0.500 sec      :     6.44 %
  
  
  ***************************
  Subcatchment Runoff Summary
  ***************************
  
  ------------------------------------------------------------------------------------------------------------------------------
                            Total      Total      Total      Total     Imperv       Perv      Total       Total     Peak  Runoff
                           Precip      Runon       Evap      Infil     Runoff     Runoff     Runoff      Runoff   Runoff   Coeff
  Subcatchment                 mm         mm         mm         mm         mm         mm         mm    10^6 ltr      LPS
  ------------------------------------------------------------------------------------------------------------------------------
  sub60                    169.38       0.00       0.00       1.98     147.90      18.35     166.25        2.18   424.10   0.981
  sub61                    169.38       0.00       0.00       2.89     139.50      25.91     165.41        3.04   589.69   0.977
  sub62                    169.38       0.00       0.00       1.32     154.57      12.23     166.81        4.57   853.87   0.985
  sub63                    169.38       0.00       0.00       5.39     119.33      43.74     163.06        3.70   694.41   0.963
  sub64                    169.38       0.00       0.00       2.72     142.79      22.69     165.48        3.97   722.02   0.977
  sub65                    169.38       0.00       0.00       2.35     146.12      19.67     165.79        4.56   817.55   0.979
  sub66                    169.38       0.00       0.00       6.71     119.18      42.41     161.60        7.54  1232.80   0.954
  sub67                    169.38       0.00       0.00       1.25     154.65      12.31     166.95        3.11   640.21   0.986
  sub68                    169.38       0.00       0.00       2.40     144.52      21.32     165.84        4.56   867.49   0.979
  sub69                    169.38       0.00       0.00       2.22     143.88      23.19     167.07        6.18  1091.59   0.986
  sub70                    169.38       0.00       0.00       7.40     111.62      50.20     161.82        4.67   746.10   0.955
  sub71                    169.38       0.00       0.00       1.36     154.52      12.19     166.71        4.36   783.64   0.984
  sub72                    169.38       0.00       0.00       1.22     156.12      10.64     166.77        2.29   395.64   0.985
  
  
  ******************
  Node Depth Summary
  ******************
  
  ---------------------------------------------------------------------------------
                                 Average  Maximum  Maximum  Time of Max    Reported
                                   Depth    Depth      HGL   Occurrence   Max Depth
  Node                 Type       Meters   Meters   Meters  days hr:min      Meters
  ---------------------------------------------------------------------------------
  WS02003060           JUNCTION     0.26     0.38     5.32     0  03:25        0.38
  WS02003066           JUNCTION     0.21     0.30     5.85     0  03:25        0.30
  WS02003067           JUNCTION     0.52     0.70     6.02     0  03:25        0.70
  WS02003069           JUNCTION     0.29     0.43     5.01     0  03:26        0.43
  WS02003072           JUNCTION     0.35     0.50     4.87     0  03:23        0.50
  WS02003073           JUNCTION     0.20     0.30     4.36     0  02:25        0.30
  WS02004401           JUNCTION     0.63     0.85     6.85     0  03:19        0.85
  WS02004402           JUNCTION     0.66     0.88     6.84     0  03:20        0.88
  WS02004403           JUNCTION     0.68     0.89     6.82     0  03:20        0.89
  WS02004404           JUNCTION     0.75     0.96     6.81     0  03:20        0.96
  WS02004405           JUNCTION     0.75     0.96     6.81     0  03:20        0.96
  WS02004406           JUNCTION     0.75     0.96     6.79     0  03:20        0.96
  WS02004407           JUNCTION     0.19     0.30     6.61     0  03:19        0.30
  WS02004409           JUNCTION     0.43     0.67     6.44     0  03:13        0.67
  WS02004410           JUNCTION     0.45     0.68     6.40     0  03:13        0.68
  WS02004411           JUNCTION     0.47     0.69     6.37     0  03:13        0.69
  WS02004412           JUNCTION     0.49     0.70     6.34     0  03:24        0.70
  WS02004413           JUNCTION     0.64     0.86     6.33     0  03:24        0.86
  WS02006109           JUNCTION     0.71     1.06     7.67     0  01:19        0.98
  WS02006110           JUNCTION     0.70     1.03     7.62     0  01:19        0.92
  WS02006111           JUNCTION     0.19     0.29     6.99     0  03:22        0.29
  WS02006112           JUNCTION     0.79     1.07     6.95     0  02:05        1.06
  WS02006113           JUNCTION     0.30     0.46     7.35     0  03:16        0.46
  WS02006115           JUNCTION     0.52     0.75     6.89     0  03:19        0.75
  WS02006116           JUNCTION     0.60     0.83     6.87     0  03:19        0.83
  WS02006228           JUNCTION     0.72     1.09     7.74     0  01:19        1.02
  WS02006229           JUNCTION     0.70     1.19     7.89     0  01:37        1.19
  WS02006230           JUNCTION     0.73     1.25     8.00     0  01:19        1.10
  WS02006231           JUNCTION     0.51     0.98     8.10     0  01:19        0.85
  WS02006232           JUNCTION     0.66     1.15     8.19     0  01:19        1.11
  WS02006234           JUNCTION     0.62     1.16     8.31     0  01:19        1.15
  WS02006235           JUNCTION     0.68     1.24     8.40     0  01:19        1.23
  WS02006238           JUNCTION     0.70     1.27     8.42     0  01:19        1.19
  WS02006239           JUNCTION     0.68     1.26     8.47     0  01:19        1.20
  WS02006240           JUNCTION     0.65     1.22     8.51     0  01:19        1.19
  WS02006242           JUNCTION     0.71     1.31     8.58     0  01:37        1.31
  WS02006243           JUNCTION     0.63     1.18     8.60     0  01:19        1.15
  WS02006245           JUNCTION     0.63     1.28     8.77     0  01:18        1.28
  WS02006247           JUNCTION     0.64     1.40     8.90     0  01:18        1.40
  WS02006248           JUNCTION     0.61     1.10     8.69     0  01:18        1.10
  WS02006249           JUNCTION     0.63     1.09     8.69     0  01:18        1.09
  WS02006251           JUNCTION     0.64     1.38     9.05     0  01:18        1.12
  WS02006252           JUNCTION     0.40     1.50     9.74     0  00:00        0.82
  WS02006256           JUNCTION     1.45     2.35     9.28     0  00:00        2.35
  WSF200               JUNCTION     0.18     0.29     5.52     0  03:25        0.29
  YS02001580           JUNCTION     0.34     1.05     9.59     0  01:06        0.85
  YS02001583           JUNCTION     0.37     1.14     9.64     0  01:06        0.84
  YS02001586           JUNCTION     0.54     1.13     9.30     0  01:05        1.13
  YS02001590           JUNCTION     0.68     1.40     9.26     0  01:06        1.38
  YS02001593           JUNCTION     0.61     1.39     9.25     0  01:06        1.39
  YS02001596           JUNCTION     0.79     1.77     9.19     0  01:06        1.77
  YS02001600           JUNCTION     0.90     1.87     9.00     0  01:05        1.87
  YS02001601           JUNCTION     1.09     2.06     8.90     0  01:05        2.06
  YS02001602           JUNCTION     0.97     1.87     8.77     0  01:07        1.87
  YS02001605           JUNCTION     0.92     1.78     8.68     0  01:07        1.78
  YS02001607           JUNCTION     0.87     1.68     8.53     0  01:07        1.68
  YS02001610           JUNCTION     0.91     1.68     8.48     0  01:07        1.68
  YS02001613           JUNCTION     0.87     1.70     8.54     0  01:07        1.70
  YS02001616           JUNCTION     0.81     1.61     8.52     0  01:07        1.60
  YS02001619           JUNCTION     0.79     1.61     8.54     0  01:07        1.61
  YS02001622           JUNCTION     0.78     1.62     8.52     0  02:08        1.62
  YS02001625           JUNCTION     1.02     1.78     8.38     0  01:07        1.78
  YS02001629           JUNCTION     0.97     1.85     8.40     0  01:07        1.85
  YS02001633           JUNCTION     1.05     2.08     8.53     0  01:37        2.08
  YS02001641           JUNCTION     1.03     2.10     8.54     0  01:08        2.10
  YS02001644           JUNCTION     1.03     1.92     8.35     0  01:08        1.92
  YS02001647           JUNCTION     0.84     1.90     8.51     0  01:08        1.90
  YS02001649           JUNCTION     0.95     2.05     8.44     0  01:37        2.05
  YS02001652           JUNCTION     0.81     2.16     8.76     0  01:37        2.16
  YS02001655           JUNCTION     0.68     2.06     8.91     0  01:09        1.82
  YS02001658           JUNCTION     0.53     1.80     8.94     0  01:31        1.35
  YS02001661           JUNCTION     0.43     1.46     8.87     0  02:58        1.14
  YS02001664           JUNCTION     0.16     0.59     8.52     0  01:10        0.53
  YS02001745           JUNCTION     0.30     0.88     8.40     0  01:10        0.84
  YS02001748           JUNCTION     0.52     1.82     8.90     0  01:10        1.26
  YS02001751           JUNCTION     0.62     1.75     8.63     0  01:10        1.61
  YS02001754           JUNCTION     0.77     1.81     8.42     0  01:10        1.79
  YS02001757           JUNCTION     0.99     2.13     8.39     0  02:58        2.13
  YS02001759           JUNCTION     0.93     2.21     8.57     0  01:37        2.21
  YS02001762           JUNCTION     0.92     2.15     8.55     0  01:37        2.15
  YS02001765           JUNCTION     0.89     2.10     8.55     0  02:08        2.10
  YS02001767           JUNCTION     0.88     2.03     8.52     0  01:37        2.03
  YS02001770           JUNCTION     0.89     1.95     8.44     0  01:08        1.95
  YS02001774           JUNCTION     0.95     2.04     8.47     0  01:08        2.03
  YS02001779           JUNCTION     0.76     1.68     8.37     0  01:08        1.68
  YS02001783           JUNCTION     0.56     1.31     7.45     0  01:08        1.23
  YS02001784           JUNCTION     0.53     1.18     7.24     0  01:08        1.16
  YS02001786           JUNCTION     0.43     1.01     7.04     0  01:07        0.87
  YS02001788           JUNCTION     0.31     0.63     6.61     0  01:08        0.62
  YS02001790           JUNCTION     0.35     0.73     6.37     0  01:37        0.72
  YS02001791           JUNCTION     0.21     0.44     5.91     0  02:13        0.43
  YS02001793           JUNCTION     0.11     0.30     5.14     0  01:10        0.28
  YS02001882           JUNCTION     0.74     1.83     8.55     0  01:07        1.74
  YS02001884           JUNCTION     0.83     1.93     8.55     0  01:07        1.83
  YS02001887           JUNCTION     0.90     2.00     8.53     0  01:07        1.96
  YS02001890           JUNCTION     0.93     1.81     8.32     0  01:07        1.81
  YS02001895           JUNCTION     0.70     1.72     8.46     0  01:08        1.72
  YS02001898           JUNCTION     0.71     1.77     8.51     0  01:07        1.77
  YS02001901           JUNCTION     0.82     1.87     8.48     0  01:08        1.87
  YS02001904           JUNCTION     0.80     1.76     8.39     0  01:08        1.76
  YS02001907           JUNCTION     1.11     1.96     8.25     0  01:07        1.96
  YS02001910           JUNCTION     0.93     1.99     8.50     0  01:08        1.92
  YS02001915           JUNCTION     0.76     2.00     8.72     0  01:07        2.00
  YS02001918           JUNCTION     0.56     1.81     8.88     0  01:07        1.53
  YS02001920           JUNCTION     0.63     2.13     9.14     0  01:08        1.59
  YS02001923           JUNCTION     0.47     2.03     9.29     0  01:08        1.39
  YS02001926           JUNCTION     0.42     1.90     9.35     0  01:08        1.24
  YS02001929           JUNCTION     0.29     1.78     9.47     0  01:08        1.03
  YS02006553           JUNCTION     1.11     2.10     8.39     0  01:08        2.10
  YS02006556           JUNCTION     1.08     2.21     8.52     0  01:08        2.21
  YS02006558           JUNCTION     1.12     2.29     8.56     0  01:37        2.29
  YS02006561           JUNCTION     0.39     1.03     7.69     0  01:08        0.89
  YS02163301           JUNCTION     1.00     1.94     8.46     0  01:08        1.91
  YS02163601           JUNCTION     1.09     2.08     8.48     0  01:08        2.08
  YS02164001           JUNCTION     1.02     2.10     8.56     0  01:08        2.10
  CC-1                 OUTFALL      0.00     0.00     0.00     0  00:00        0.00
  CC-2                 OUTFALL      0.00     0.00     0.00     0  00:00        0.00
  JK-1                 OUTFALL      0.00     0.00     0.00     0  00:00        0.00
  JK-2                 OUTFALL      0.00     0.00     0.00     0  00:00        0.00
  WSC                  OUTFALL      0.20     0.30     0.97     0  02:25        0.30
  CC-storage           STORAGE      1.29     2.30     7.80     0  02:48        2.30
  JK-storage           STORAGE      2.35     4.24     5.04     0  02:42        4.19
  
  
  *******************
  Node Inflow Summary
  *******************
  
  -------------------------------------------------------------------------------------------------
                                  Maximum  Maximum                  Lateral       Total        Flow
                                  Lateral    Total  Time of Max      Inflow      Inflow     Balance
                                   Inflow   Inflow   Occurrence      Volume      Volume       Error
  Node                 Type           LPS      LPS  days hr:min    10^6 ltr    10^6 ltr     Percent
  -------------------------------------------------------------------------------------------------
  WS02003060           JUNCTION     16.53   553.35     0  03:25       0.471        6.56       0.029
  WS02003066           JUNCTION      0.00   536.63     0  03:25           0        6.09       0.020
  WS02003067           JUNCTION      0.00   536.60     0  03:24           0         6.1       0.065
  WS02003069           JUNCTION      0.32   553.49     0  03:26     0.00912        6.57       0.053
  WS02003072           JUNCTION      0.00   553.33     0  03:23           0        6.57       0.097
  WS02003073           JUNCTION      1.82   555.11     0  02:24      0.0519        6.61       0.073
  WS02004401           JUNCTION      0.00   538.73     0  03:19           0        6.19       0.160
  WS02004402           JUNCTION      0.00   538.34     0  03:19           0        6.18       0.162
  WS02004403           JUNCTION      0.00   538.21     0  03:20           0        6.17       0.159
  WS02004404           JUNCTION      0.16   537.68     0  03:20     0.00462        6.17       0.137
  WS02004405           JUNCTION      0.04   537.78     0  03:20     0.00109        6.16       0.193
  WS02004406           JUNCTION      0.00   538.38     0  03:20           0        6.15       0.333
  WS02004407           JUNCTION      0.00   537.33     0  03:20           0        6.13       0.014
  WS02004409           JUNCTION      0.00   537.07     0  03:19           0        6.13       0.035
  WS02004410           JUNCTION      0.00   536.87     0  03:20           0        6.13       0.064
  WS02004411           JUNCTION      0.00   536.73     0  03:20           0        6.12       0.083
  WS02004412           JUNCTION      0.00   536.68     0  03:20           0        6.12       0.113
  WS02004413           JUNCTION      0.00   536.81     0  03:24           0        6.11       0.208
  WS02006109           JUNCTION      1.23   552.13     0  01:19      0.0351        6.24       0.139
  WS02006110           JUNCTION      0.00   553.31     0  01:19           0        6.23       0.101
  WS02006111           JUNCTION      0.00   560.27     0  02:52           0        6.22       0.014
  WS02006112           JUNCTION      0.00   543.38     0  03:22           0        6.22       0.321
  WS02006113           JUNCTION      0.00   564.82     0  01:19           0        6.22       0.022
  WS02006115           JUNCTION      0.00   546.48     0  03:19           0         6.2       0.101
  WS02006116           JUNCTION      0.00   539.60     0  03:19           0        6.19       0.005
  WS02006228           JUNCTION      0.00   550.78     0  01:19           0        6.21       0.059
  WS02006229           JUNCTION      0.00   550.46     0  01:19           0        6.21       0.075
  WS02006230           JUNCTION     10.28   565.11     0  01:19       0.293        6.22       0.088
  WS02006231           JUNCTION      0.00   554.46     0  01:18           0        5.92      -0.015
  WS02006232           JUNCTION      0.00   554.96     0  01:18           0        5.93       0.110
  WS02006234           JUNCTION      0.00   555.82     0  01:18           0        5.92      -0.086
  WS02006235           JUNCTION      0.00   556.49     0  01:18           0           6       0.105
  WS02006238           JUNCTION      0.00   422.27     0  03:31           0        4.19      -0.068
  WS02006239           JUNCTION      0.00   422.39     0  03:31           0        4.16      -0.051
  WS02006240           JUNCTION      0.00   420.28     0  03:31           0        4.12      -0.036
  WS02006242           JUNCTION      0.00   421.18     0  03:31           0        4.09      -0.025
  WS02006243           JUNCTION      0.00   420.54     0  03:31           0        4.07      -0.089
  WS02006245           JUNCTION      0.00   419.65     0  03:31           0        4.07       0.212
  WS02006247           JUNCTION      0.00   418.86     0  03:31           0        4.07       0.009
  WS02006248           JUNCTION      0.00   418.83     0  03:31           0        4.07       0.044
  WS02006249           JUNCTION      0.00   459.02     0  00:00           0        4.64       0.107
  WS02006251           JUNCTION      0.08   405.71     0  01:18     0.00219        4.63      -0.011
  WS02006252           JUNCTION      0.00   400.00     0  00:00           0        4.63      -0.012
  WS02006256           JUNCTION      0.00   300.00     0  00:00           0        2.76      -0.105
  WSF200               JUNCTION      0.00   536.67     0  03:25           0        6.09       0.005
  YS02001580           JUNCTION      0.00   257.84     0  01:06           0     0.00474      -7.935
  YS02001583           JUNCTION      0.00   283.55     0  01:05           0      0.0146     -15.028
  YS02001586           JUNCTION    746.10   746.15     0  02:21        4.67        4.69       0.037
  YS02001590           JUNCTION      0.00   318.66     0  02:25           0        2.77      -0.043
  YS02001593           JUNCTION      0.00   318.13     0  02:32           0        2.77       0.019
  YS02001596           JUNCTION      0.00   318.05     0  02:01           0        2.78      -0.045
  YS02001600           JUNCTION      0.00   318.45     0  01:37           0        2.78       0.024
  YS02001601           JUNCTION   1091.59  1409.09     0  01:41        6.18        8.96       0.007
  YS02001602           JUNCTION      0.00   619.13     0  01:06           0         3.7       0.010
  YS02001605           JUNCTION      0.00   619.11     0  01:06           0        3.24       0.019
  YS02001607           JUNCTION      0.00   618.54     0  01:06           0        3.24       0.025
  YS02001610           JUNCTION      0.00   685.70     0  01:06           0        4.31       0.056
  YS02001613           JUNCTION      0.00   615.71     0  01:06           0        2.09       0.051
  YS02001616           JUNCTION      0.00   573.99     0  01:06           0         2.1      -0.023
  YS02001619           JUNCTION   1232.80  1232.80     0  02:21        7.53        8.56      -0.002
  YS02001622           JUNCTION      0.00  1002.84     0  01:06           0        7.46      -0.005
  YS02001625           JUNCTION      0.00  1227.47     0  01:41           0        8.61       0.068
  YS02001629           JUNCTION      0.00   777.42     0  01:26           0        3.27       0.082
  YS02001633           JUNCTION    817.75  1304.83     0  01:08        4.57        6.69       0.038
  YS02001641           JUNCTION      0.00  1294.14     0  01:07           0        5.54       0.030
  YS02001644           JUNCTION    722.05  1875.48     0  01:08        3.97        9.51       0.024
  YS02001647           JUNCTION      0.00  1889.26     0  01:08           0        6.69      -0.000
  YS02001649           JUNCTION      0.00  2166.08     0  01:08           0        10.4       0.002
  YS02001652           JUNCTION      0.00   784.38     0  01:11           0        3.73      -0.119
  YS02001655           JUNCTION      0.15   820.79     0  01:09     0.00439        3.73       0.101
  YS02001658           JUNCTION      0.00   783.64     0  01:11           0        3.73       0.019
  YS02001661           JUNCTION      0.00   878.90     0  01:37           0         3.7      -0.791
  YS02001664           JUNCTION    694.41   694.41     0  01:40         3.7         3.7       0.048
  YS02001745           JUNCTION    424.11   567.59     0  01:09        2.18        2.18       0.097
  YS02001748           JUNCTION      0.04   635.61     0  01:10     0.00128        2.19      -0.201
  YS02001751           JUNCTION      0.01   570.83     0  01:08    0.000313         2.2       0.101
  YS02001754           JUNCTION      0.26   561.02     0  01:10     0.00741         2.2      -0.157
  YS02001757           JUNCTION      0.00  3501.85     0  01:10           0        19.3       0.031
  YS02001759           JUNCTION    589.73  1400.85     0  01:09        3.04        6.68      -0.007
  YS02001762           JUNCTION      0.00   822.45     0  01:09           0        3.64      -0.003
  YS02001765           JUNCTION      0.00   821.71     0  01:09           0        3.64      -0.007
  YS02001767           JUNCTION      0.54   821.23     0  01:09      0.0152        3.64      -0.004
  YS02001770           JUNCTION    854.03   854.03     0  01:40        4.57        4.62      -0.017
  YS02001774           JUNCTION      0.00   523.17     0  01:08           0        1.02       0.035
  YS02001779           JUNCTION      0.01   513.56     0  01:08    0.000142       0.972      -0.101
  YS02001783           JUNCTION      0.00  1162.26     0  01:37           0        9.06       0.003
  YS02001784           JUNCTION      1.06  1161.52     0  01:37      0.0302        9.09       0.006
  YS02001786           JUNCTION      0.06  1163.08     0  01:37      0.0016        9.09       0.009
  YS02001788           JUNCTION      0.07  1163.59     0  01:37     0.00202        9.09       0.004
  YS02001790           JUNCTION      0.15  1188.78     0  01:08     0.00442         9.1       0.028
  YS02001791           JUNCTION      0.00  1287.80     0  02:22           0        9.09      -0.062
  YS02001793           JUNCTION      0.00  1250.37     0  01:37           0         9.1       0.006
  YS02001882           JUNCTION      0.00   112.02     0  01:07           0      0.0138       4.400
  YS02001884           JUNCTION      0.00   230.38     0  01:06           0      0.0505       4.871
  YS02001887           JUNCTION    640.66   648.65     0  01:07        3.12        3.15       0.119
  YS02001890           JUNCTION      0.00   653.99     0  01:07           0        3.11       0.171
  YS02001895           JUNCTION      0.00   645.01     0  01:07           0        3.04       0.117
  YS02001898           JUNCTION      0.00   642.91     0  01:07           0        3.04      -0.046
  YS02001901           JUNCTION      0.00   644.58     0  01:07           0        3.05       0.105
  YS02001904           JUNCTION      0.00   643.14     0  01:07           0        3.08       0.091
  YS02001907           JUNCTION      0.00  1697.54     0  01:41           0        9.82       0.183
  YS02001910           JUNCTION      0.00  1180.68     0  01:41           0        6.75       0.099
  YS02001915           JUNCTION    783.66  1180.43     0  01:41        4.36         6.8       0.009
  YS02001918           JUNCTION      0.00   887.41     0  01:07           0        2.48       0.027
  YS02001920           JUNCTION      2.87   769.46     0  01:08      0.0818        2.44      -0.010
  YS02001923           JUNCTION      0.04   996.16     0  01:08     0.00107        2.34      -0.019
  YS02001926           JUNCTION      0.05  1265.30     0  01:08     0.00149        2.31      -0.152
  YS02001929           JUNCTION    395.64  1195.00     0  01:08        2.29         2.3      -0.090
  YS02006553           JUNCTION      0.00   808.79     0  03:03           0        4.58       0.261
  YS02006556           JUNCTION      0.00   810.12     0  03:03           0         4.6       0.176
  YS02006558           JUNCTION    868.37  1180.31     0  01:07        4.59        9.13       0.035
  YS02006561           JUNCTION      0.00  1182.87     0  01:07           0        9.06       0.000
  YS02163301           JUNCTION      0.00   777.16     0  01:26           0        3.28       0.041
  YS02163601           JUNCTION      0.11  1304.55     0  01:08     0.00313        5.52       0.080
  YS02164001           JUNCTION      0.00  1303.42     0  01:08           0        5.52       0.032
  CC-1                 OUTFALL       0.00   683.00     0  00:00           0        7.71       0.000
  CC-2                 OUTFALL       0.00   683.00     0  00:00           0        7.47       0.000
  JK-1                 OUTFALL       0.00  1000.00     0  00:00           0        6.31       0.000
  JK-2                 OUTFALL       0.00  1000.00     0  00:00           0      0.0484       0.000
  WSC                  OUTFALL       0.00   555.07     0  02:25           0        6.61       0.000
  CC-storage           STORAGE       0.00  3502.25     0  01:10           0        21.5      -0.130
  JK-storage           STORAGE       0.00  1264.62     0  01:37           0        9.25      -0.029
  
  
  **********************
  Node Surcharge Summary
  **********************
  
  Surcharging occurs when water rises above the top of the highest conduit.
  ---------------------------------------------------------------------
                                               Max. Height   Min. Depth
                                   Hours       Above Crown    Below Rim
  Node                 Type      Surcharged         Meters       Meters
  ---------------------------------------------------------------------
  WS02006109           JUNCTION        3.01          0.236        1.584
  WS02006110           JUNCTION        2.19          0.124        1.726
  WS02006112           JUNCTION        2.12          0.066        1.614
  WS02006228           JUNCTION        3.00          0.263        1.937
  WS02006229           JUNCTION        3.01          0.394        2.056
  WS02006230           JUNCTION        2.20          0.173        1.397
  WS02006231           JUNCTION        2.21          0.267        1.263
  WS02006232           JUNCTION        3.03          0.451        1.029
  WS02006234           JUNCTION        2.26          0.436        0.804
  WS02006235           JUNCTION        3.01          0.531        0.759
  WS02006238           JUNCTION        3.02          0.555        0.875
  WS02006239           JUNCTION        3.01          0.521        0.769
  WS02006240           JUNCTION        3.01          0.508        0.882
  WS02006242           JUNCTION        3.02          0.581        0.239
  WS02006243           JUNCTION        3.00          0.470        0.300
  WS02006245           JUNCTION        3.00          0.573        0.277
  WS02006247           JUNCTION        3.00          0.691        0.069
  WS02006248           JUNCTION        2.99          0.380        0.000
  WS02006249           JUNCTION        2.99          0.390        0.000
  WS02006251           JUNCTION        2.22          0.350        0.830
  WS02006252           JUNCTION        3.19          1.100        0.000
  WS02006256           JUNCTION        4.56          2.050        0.000
  YS02001580           JUNCTION        2.08          0.450        0.000
  YS02001583           JUNCTION        2.08          0.500        0.000
  YS02001586           JUNCTION        2.17          0.510        0.000
  YS02001590           JUNCTION        2.22          0.750        0.000
  YS02001593           JUNCTION        2.22          0.768        0.072
  YS02001596           JUNCTION        2.28          1.037        0.033
  YS02001600           JUNCTION        2.37          1.190        0.000
  YS02001601           JUNCTION        2.55          1.440        0.000
  YS02001602           JUNCTION        2.51          1.270        0.000
  YS02001605           JUNCTION        2.49          1.180        0.000
  YS02001607           JUNCTION        2.24          0.680        0.000
  YS02001610           JUNCTION        2.26          0.680        0.000
  YS02001613           JUNCTION        2.24          0.700        0.000
  YS02001616           JUNCTION        2.21          0.610        0.000
  YS02001619           JUNCTION        2.20          0.610        0.000
  YS02001622           JUNCTION        2.21          0.620        0.000
  YS02001625           JUNCTION        2.35          0.780        0.000
  YS02001629           JUNCTION        2.18          0.470        0.000
  YS02001633           JUNCTION        2.40          1.060        0.000
  YS02001641           JUNCTION        2.41          1.098        0.002
  YS02001644           JUNCTION        2.40          0.920        0.000
  YS02001647           JUNCTION        2.28          0.900        0.000
  YS02001649           JUNCTION        2.40          1.050        0.000
  YS02001652           JUNCTION        2.25          1.130        0.000
  YS02001655           JUNCTION        2.00          1.065        0.135
  YS02001658           JUNCTION        1.65          0.798        0.502
  YS02001661           JUNCTION        0.16          0.393        0.997
  YS02001748           JUNCTION        1.50          0.740        0.450
  YS02001751           JUNCTION        1.86          0.748        0.452
  YS02001754           JUNCTION        2.16          0.757        0.393
  YS02001757           JUNCTION        2.48          1.129        0.081
  YS02001759           JUNCTION        2.41          1.210        0.000
  YS02001762           JUNCTION        2.38          1.150        0.000
  YS02001765           JUNCTION        2.34          1.100        0.000
  YS02001767           JUNCTION        2.32          1.030        0.000
  YS02001770           JUNCTION        2.29          0.920        0.000
  YS02001774           JUNCTION        2.36          1.044        0.006
  YS02001779           JUNCTION        2.13          0.680        0.000
  YS02001783           JUNCTION        2.02          0.512        1.088
  YS02001784           JUNCTION        2.00          0.375        1.115
  YS02001786           JUNCTION        1.94          0.208        1.222
  YS02001882           JUNCTION        1.98          0.830        0.000
  YS02001884           JUNCTION        1.99          0.870        0.000
  YS02001887           JUNCTION        2.01          0.946        0.004
  YS02001890           JUNCTION        2.02          0.760        0.000
  YS02001895           JUNCTION        1.98          0.717        0.033
  YS02001898           JUNCTION        1.97          0.740        0.000
  YS02001901           JUNCTION        2.00          0.870        0.000
  YS02001904           JUNCTION        2.00          0.758        0.092
  YS02001907           JUNCTION        2.10          0.950        0.000
  YS02001910           JUNCTION        2.03          0.994        0.106
  YS02001915           JUNCTION        1.98          1.000        0.000
  YS02001918           JUNCTION        1.87          0.810        0.000
  YS02001920           JUNCTION        1.92          1.133        0.007
  YS02001923           JUNCTION        0.01          0.820        0.000
  YS02001926           JUNCTION        0.10          0.900        0.000
  YS02001929           JUNCTION        0.01          0.780        0.000
  YS02006553           JUNCTION        2.10          1.105        0.085
  YS02006556           JUNCTION        2.06          1.169        0.181
  YS02006558           JUNCTION        2.06          1.194        0.206
  YS02006561           JUNCTION        1.79          0.227        0.923
  YS02163301           JUNCTION        2.38          0.942        0.088
  YS02163601           JUNCTION        2.44          1.080        0.000
  YS02164001           JUNCTION        2.40          1.098        0.002
  
  
  *********************
  Node Flooding Summary
  *********************
  
  Flooding refers to all water that overflows a node, whether it ponds or not.
  --------------------------------------------------------------------------
                                                             Total   Maximum
                                 Maximum   Time of Max       Flood    Ponded
                        Hours       Rate    Occurrence      Volume     Depth
  Node                 Flooded       LPS   days hr:min    10^6 ltr    Meters
  --------------------------------------------------------------------------
  WS02006248              0.01     12.09      0  01:18       0.000     0.000
  WS02006249              2.22     96.55      0  01:18       0.564     0.000
  WS02006252              0.01    245.63      0  00:00       0.000     0.000
  WS02006256              2.55    293.19      0  00:00       0.893     0.000
  YS02001580              0.01    207.78      0  01:06       0.001     0.000
  YS02001583              0.01    171.72      0  01:06       0.001     0.000
  YS02001586              2.02    429.18      0  02:21       1.904     0.000
  YS02001590              0.01     21.71      0  01:06       0.000     0.000
  YS02001600              0.01      8.27      0  01:05       0.000     0.000
  YS02001601              2.12   1011.22      0  01:41       5.254     0.000
  YS02001602              2.09     62.20      0  01:59       0.460     0.000
  YS02001605              0.01      9.50      0  01:07       0.000     0.000
  YS02001607              0.01    385.29      0  01:07       0.003     0.000
  YS02001610              2.04    672.59      0  02:21       3.300     0.000
  YS02001613              0.01     76.12      0  01:07       0.000     0.000
  YS02001616              0.01    101.57      0  01:07       0.001     0.000
  YS02001619              0.01     64.11      0  01:07       0.000     0.000
  YS02001622              0.01      0.79      0  02:08       0.000     0.000
  YS02001625              2.05   1227.31      0  01:41       6.491     0.000
  YS02001629              0.10    128.07      0  01:10       0.019     0.000
  YS02001633              0.01      0.52      0  02:08       0.000     0.000
  YS02001644              1.57    908.22      0  02:20       2.791     0.000
  YS02001647              0.01     98.76      0  01:08       0.000     0.000
  YS02001649              0.01     22.77      0  02:08       0.000     0.000
  YS02001652              0.01      1.26      0  01:37       0.000     0.000
  YS02001759              0.01      1.13      0  01:37       0.000     0.000
  YS02001762              0.01      0.78      0  01:37       0.000     0.000
  YS02001765              0.01      2.00      0  02:08       0.000     0.000
  YS02001767              0.01      1.64      0  02:08       0.000     0.000
  YS02001770              0.01    108.03      0  01:08       0.000     0.000
  YS02001779              1.46    452.91      0  01:08       0.955     0.000
  YS02001882              0.01     92.71      0  01:07       0.000     0.000
  YS02001884              0.01     15.12      0  01:07       0.000     0.000
  YS02001890              0.45    276.44      0  01:07       0.063     0.000
  YS02001898              0.01    261.07      0  01:07       0.001     0.000
  YS02001901              0.01      2.38      0  01:08       0.000     0.000
  YS02001907              1.77   1407.88      0  01:40       5.242     0.000
  YS02001915              0.01    245.95      0  01:07       0.001     0.000
  YS02001918              0.01    273.12      0  01:07       0.004     0.000
  YS02001923              0.01     69.81      0  01:08       0.000     0.000
  YS02001926              0.01     54.04      0  01:08       0.000     0.000
  YS02001929              0.01    960.30      0  01:08       0.007     0.000
  YS02163601              0.01      4.64      0  01:08       0.000     0.000
  CC-storage              0.22    121.05      0  02:49       0.084     0.000
  
  
  **********************
  Storage Volume Summary
  **********************
  
  ------------------------------------------------------------------------------------------------
                         Average    Avg   Evap  Exfil     Maximum    Max    Time of Max    Maximum
                          Volume   Pcnt   Pcnt   Pcnt      Volume   Pcnt     Occurrence    Outflow
  Storage Unit           1000 m³   Full   Loss   Loss     1000 m³   Full    days hr:min        LPS
  ------------------------------------------------------------------------------------------------
  CC-storage               3.595   56.1    0.0    0.0       6.410  100.0       0  02:48    1783.53
  JK-storage               0.118   40.6    0.0    0.0       0.213   73.1       0  02:42    2300.00
  
  
  ***********************
  Outfall Loading Summary
  ***********************
  
  -----------------------------------------------------------
                         Flow       Avg       Max       Total
                         Freq      Flow      Flow      Volume
  Outfall Node           Pcnt       LPS       LPS    10^6 ltr
  -----------------------------------------------------------
  CC-1                  57.76    683.00    683.00       7.710
  CC-2                  55.64    683.00    683.00       7.467
  JK-1                  36.60   1000.00   1000.00       6.312
  JK-2                   0.22   1000.00   1000.00       0.048
  WSC                   99.94    314.41    555.07       6.608
  -----------------------------------------------------------
  System                50.03   3680.41   3366.23      28.145
  
  
  ********************
  Link Flow Summary
  ********************
  
  -----------------------------------------------------------------------------
                                 Maximum  Time of Max   Maximum    Max/    Max/
                                  |Flow|   Occurrence   |Veloc|    Full    Full
  Link                 Type          LPS  days hr:min     m/sec    Flow   Depth
  -----------------------------------------------------------------------------
  1                    CONDUIT    555.07     0  02:25      2.83    0.19    0.30
  WS02003060WS02003069 CONDUIT    553.17     0  03:26      1.64    0.22    0.34
  WS02003066WSF200     CONDUIT    536.67     0  03:25      2.85    0.09    0.22
  WS02003067WS02003066 CONDUIT    536.63     0  03:25      1.21    0.17    0.42
  WS02003069WS02003072 CONDUIT    553.33     0  03:23      1.37    0.27    0.39
  WS02003072WS02003073 CONDUIT    553.29     0  02:24      1.44    1.20    0.37
  WS02004401WS02004402 CONDUIT    538.34     0  03:19      1.23    0.65    0.86
  WS02004402WS02004403 CONDUIT    538.21     0  03:20      1.24    0.77    0.88
  WS02004403WS02004404 CONDUIT    537.52     0  03:20      1.17    0.39    0.93
  WS02004404WS02004405 CONDUIT    537.74     0  03:20      1.43    5.27    0.96
  WS02004405WS02004406 CONDUIT    538.38     0  03:20      1.39    1.06    0.96
  WS02004406WS02004407 CONDUIT    537.33     0  03:20      1.04    0.24    0.63
  WS02004407WS02004409 CONDUIT    537.07     0  03:19      1.59    0.19    0.48
  WS02004409WS02004410 CONDUIT    536.87     0  03:20      1.05    0.69    0.67
  WS02004410WS02004411 CONDUIT    536.73     0  03:20      1.02    0.73    0.69
  WS02004411WS02004412 CONDUIT    536.68     0  03:20      0.97    0.76    0.69
  WS02004412WS02004413 CONDUIT    536.81     0  03:24      0.87    0.36    0.78
  WS02004413WS02003067 CONDUIT    536.60     0  03:24      1.11    0.23    0.59
  WS02006109WS02006110 CONDUIT    553.31     0  01:19      1.10    1.06    1.00
  WS02006110WS02006113 CONDUIT    564.82     0  01:19      1.36    0.51    0.78
  WS02006111WS02006112 CONDUIT    543.38     0  03:22      1.96    0.26    0.67
  WS02006112WS02006115 CONDUIT    546.48     0  03:19      0.87    0.32    0.87
  WS02006113WS02006111 CONDUIT    560.27     0  02:52      2.47    0.67    0.46
  WS02006115WS02006116 CONDUIT    539.60     0  03:19      1.19    0.69    0.76
  WS02006116WS02004401 CONDUIT    538.73     0  03:19      1.22    0.74    0.84
  WS02006228WS02006109 CONDUIT    550.90     0  01:19      1.10    2.41    1.00
  WS02006229WS02006228 CONDUIT    550.78     0  01:19      1.14    1.82    1.00
  WS02006230WS02006229 CONDUIT    550.46     0  01:19      1.43   12.25    1.00
  WS02006231WS02006230 CONDUIT    554.83     0  01:19      1.55    8.42    1.00
  WS02006232WS02006231 CONDUIT    554.46     0  01:18      1.44    1.16    1.00
  WS02006234WS02006232 CONDUIT    554.96     0  01:18      1.44    1.12    1.00
  WS02006235WS02006234 CONDUIT    555.82     0  01:18      1.44    5.86    1.00
  WS02006238WS02006235 CONDUIT    421.01     0  03:31      1.53    0.94    1.00
  WS02006239WS02006238 CONDUIT    422.27     0  03:31      1.10    1.35    1.00
  WS02006240WS02006239 CONDUIT    422.39     0  03:31      1.24    1.33    1.00
  WS02006242WS02006240 CONDUIT    420.28     0  03:31      1.13    1.67    1.00
  WS02006243WS02006242 CONDUIT    421.18     0  03:31      1.40    0.90    1.00
  WS02006245WS02006243 CONDUIT    420.54     0  03:31      1.45    1.24    1.00
  WS02006247WS02006245 CONDUIT    419.65     0  03:31      1.43    3.33    1.00
  WS02006248WS02006247 CONDUIT    418.86     0  03:31      1.44    0.91    1.00
  WS02006249WS02006248 CONDUIT    418.83     0  03:31      1.36    2.29    1.00
  WS02006251WS02006249 CONDUIT    459.02     0  00:00      1.99    1.32    1.00
  WS02006252WS02006251 CONDUIT    405.63     0  01:18     25.30    1.49    1.00
  WS02006256WS02006235 CONDUIT    288.91     0  00:00      4.23    3.06    1.00
  WSF200WS02003060     CONDUIT    536.82     0  03:25      2.06    0.12    0.28
  YS02001580YS02001583 CONDUIT    257.84     0  01:06      1.14    1.00    1.00
  YS02001583YS02001586 CONDUIT    283.55     0  01:05      1.25    0.43    1.00
  YS02001586YS02001590 CONDUIT    318.66     0  02:25      1.42    0.56    1.00
  YS02001590YS02001593 CONDUIT    318.13     0  02:32      1.13    2.00    1.00
  YS02001593YS02001596 CONDUIT    318.05     0  02:01      1.67    0.50    1.00
  YS02001596YS02001600 CONDUIT    318.45     0  01:37      1.24    0.62    1.00
  YS02001600YS02001601 CONDUIT    318.51     0  01:37      1.13    0.55    1.00
  YS02001601YS02001602 CONDUIT    619.13     0  01:06      2.19    2.24    1.00
  YS02001602YS02001605 CONDUIT    619.11     0  01:06      2.19   13.10    1.00
  YS02001605YS02001607 CONDUIT    618.54     0  01:06      2.19    3.39    1.00
  YS02001607YS02001610 CONDUIT    685.70     0  01:06      1.06    0.65    1.00
  YS02001610YS02001613 CONDUIT    615.71     0  01:06      0.89    0.71    1.00
  YS02001613YS02001616 CONDUIT    573.99     0  01:06      0.90    0.49    1.00
  YS02001616YS02001619 CONDUIT    518.70     0  01:06      0.94    0.90    1.00
  YS02001619YS02001622 CONDUIT   1002.84     0  01:06      2.17    1.48    1.00
  YS02001622YS02001625 CONDUIT    898.25     0  02:20      1.34    0.48    1.00
  YS02001625YS02001629 CONDUIT    777.42     0  01:26      1.11    0.37    1.00
  YS02001629YS02163301 CONDUIT    777.16     0  01:26      0.99    0.96    1.00
  YS02001633YS02163601 CONDUIT   1304.44     0  01:08      1.66    1.37    1.00
  YS02001641YS02001644 CONDUIT   1301.82     0  01:08      1.66    4.21    1.00
  YS02001644YS02001647 CONDUIT   1889.26     0  01:08      2.41    1.11    1.00
  YS02001647YS02001649 CONDUIT   1913.96     0  01:08      2.44    1.01    1.00
  YS02001649YS02001757 CONDUIT   2166.26     0  01:08      2.76    1.31    1.00
  YS02001652YS02001649 CONDUIT    784.79     0  01:11      1.69    0.39    1.00
  YS02001655YS02001652 CONDUIT    784.38     0  01:11      2.12    0.38    1.00
  YS02001658YS02001655 CONDUIT    820.63     0  01:09      2.27    0.35    1.00
  YS02001661YS02001658 CONDUIT    783.64     0  01:11      2.53    0.31    1.00
  YS02001664YS02001661 CONDUIT    878.90     0  01:37      2.48    0.28    0.79
  YS02001745YS02001748 CONDUIT    635.56     0  01:10      2.42    0.24    0.94
  YS02001748YS02001751 CONDUIT    559.55     0  01:10      1.98    0.28    1.00
  YS02001751YS02001754 CONDUIT    560.76     0  01:10      1.97    0.27    1.00
  YS02001754YS02001757 CONDUIT    562.62     0  01:10      1.37    0.23    1.00
  YS02001757CaochengTiaoxuchi CONDUIT   3502.25     0  01:10      4.75    1.52    1.00
  YS02001759YS02001757 CONDUIT   1401.40     0  01:09      1.78    1.00    1.00
  YS02001762YS02001759 CONDUIT    821.77     0  01:09      1.05    0.95    1.00
  YS02001765YS02001762 CONDUIT    822.45     0  01:09      1.05    0.77    1.00
  YS02001767YS02001765 CONDUIT    821.71     0  01:09      1.05    1.03    1.00
  YS02001770YS02001767 CONDUIT    820.69     0  01:09      1.09    3.25    1.00
  YS02001774YS02001770 CONDUIT    523.17     0  01:08      0.96    0.33    1.00
  YS02001779YS02001774 CONDUIT    513.56     0  01:08      0.67    0.26    1.00
  YS02001783YS02001784 CONDUIT   1160.46     0  01:37      2.31    1.60    1.00
  YS02001784YS02001785 CONDUIT   1163.02     0  01:37      2.31    2.71    1.00
  YS02001786YS02001788 CONDUIT   1163.52     0  01:37      2.49    2.24    0.89
  YS02001788YS02001790 CONDUIT   1188.62     0  01:08      2.78    0.88    0.84
  YS02001790YS02001791 CONDUIT   1287.80     0  02:22      3.43    1.40    0.70
  YS02001791YS02001793 CONDUIT   1250.37     0  01:37      6.80    0.54    0.45
  YS02001793JiankangQianchi CONDUIT   1264.62     0  01:37      2.52    0.10    0.65
  YS02001882YS02001884 CONDUIT    112.02     0  01:07      0.57    0.13    1.00
  YS02001884YS02001887 CONDUIT    230.38     0  01:06      0.55    0.31    1.00
  YS02001887YS02001890 CONDUIT    653.99     0  01:07      0.83    1.12    1.00
  YS02001890YS02001895 CONDUIT    645.01     0  01:07      0.82    0.30    1.00
  YS02001895YS02001898 CONDUIT    642.91     0  01:07      0.92    1.12    1.00
  YS02001898YS02001901 CONDUIT    644.58     0  01:07      0.82    0.42    1.00
  YS02001901YS02001904 CONDUIT    643.14     0  01:07      0.90    1.00    1.00
  YS02001904YS02001907 CONDUIT    646.00     0  01:07      0.82    0.23    1.00
  YS02001907YS02006553 CONDUIT    808.79     0  03:03      0.90    0.95    1.00
  YS02001910YS02001907 CONDUIT   1180.45     0  01:41      1.50    0.67    1.00
  YS02001915YS02001910 CONDUIT   1180.68     0  01:41      1.50    0.59    1.00
  YS02001918YS02001915 CONDUIT    887.41     0  01:07      1.13    0.49    1.00
  YS02001920YS02001918 CONDUIT    766.59     0  01:08      0.98    0.74    1.00
  YS02001923YS02001920 CONDUIT    797.42     0  01:08      1.06    0.36    1.00
  YS02001926YS02001923 CONDUIT   1033.33     0  01:08      1.45    1.48    1.00
  YS02001929YS02001926 CONDUIT    917.57     0  01:08      1.23    0.44    1.00
  YS02006553YS02006556 CONDUIT    810.12     0  03:03      1.03    0.69    1.00
  YS02006556YS02006558 CONDUIT    813.70     0  03:03      1.04    0.64    1.00
  YS02006558YS02006561 CONDUIT   1182.87     0  01:07      4.18    2.61    1.00
  YS02006561YS02001783 CONDUIT   1162.26     0  01:37      2.31    0.60    1.00
  YS02163301YS02001633 CONDUIT    776.74     0  01:26      0.99    0.73    1.00
  YS02163601YS02164001 CONDUIT   1303.42     0  01:08      1.66    1.15    1.00
  YS02164001YS02001641 CONDUIT   1294.14     0  01:07      1.65    1.77    1.00
  CC-R1                PUMP       683.00     0  00:00              1.00
  CC-R2                PUMP       683.00     0  00:00              1.00
  CC-S1                PUMP       200.00     0  00:00              1.00
  CC-S2                PUMP       200.00     0  00:00              1.00
  JK-R1                PUMP      1000.00     0  00:00              1.00
  JK-R2                PUMP      1000.00     0  00:00              1.00
  JK-S                 PUMP       300.00     0  00:00              1.00
  
  
  ***************************
  Flow Classification Summary
  ***************************
  
  -------------------------------------------------------------------------------------
                      Adjusted    ---------- Fraction of Time in Flow Class ---------- 
                       /Actual         Up    Down  Sub   Sup   Up    Down  Norm  Inlet 
  Conduit               Length    Dry  Dry   Dry   Crit  Crit  Crit  Crit  Ltd   Ctrl  
  -------------------------------------------------------------------------------------
  1                       1.00   0.00  0.00  0.00  0.00  1.00  0.00  0.00  0.54  0.00
  WS02003060WS02003069    1.00   0.00  0.00  0.00  0.98  0.02  0.00  0.00  0.59  0.00
  WS02003066WSF200        1.00   0.06  0.00  0.00  0.00  0.94  0.00  0.00  0.65  0.00
  WS02003067WS02003066    1.00   0.05  0.01  0.00  0.94  0.00  0.00  0.00  0.00  0.00
  WS02003069WS02003072    1.00   0.00  0.00  0.00  0.99  0.01  0.00  0.00  0.61  0.00
  WS02003072WS02003073    1.00   0.00  0.00  0.00  0.00  0.00  0.00  1.00  0.00  0.00
  WS02004401WS02004402    1.00   0.02  0.00  0.00  0.98  0.00  0.00  0.00  0.00  0.00
  WS02004402WS02004403    1.00   0.02  0.00  0.00  0.98  0.00  0.00  0.00  0.00  0.00
  WS02004403WS02004404    1.00   0.00  0.03  0.00  0.97  0.00  0.00  0.00  0.00  0.00
  WS02004404WS02004405    1.00   0.00  0.00  0.00  1.00  0.00  0.00  0.00  0.01  0.00
  WS02004405WS02004406    1.00   0.00  0.00  0.00  1.00  0.00  0.00  0.00  0.00  0.00
  WS02004406WS02004407    1.00   0.00  0.03  0.00  0.96  0.00  0.00  0.00  0.00  0.00
  WS02004407WS02004409    1.00   0.04  0.00  0.00  0.95  0.01  0.00  0.00  0.95  0.00
  WS02004409WS02004410    1.00   0.04  0.00  0.00  0.96  0.00  0.00  0.00  0.00  0.00
  WS02004410WS02004411    1.00   0.04  0.00  0.00  0.96  0.00  0.00  0.00  0.00  0.00
  WS02004411WS02004412    1.00   0.04  0.00  0.00  0.96  0.00  0.00  0.00  0.00  0.00
  WS02004412WS02004413    1.00   0.04  0.00  0.00  0.96  0.00  0.00  0.00  0.00  0.00
  WS02004413WS02003067    1.00   0.04  0.01  0.00  0.00  0.00  0.95  0.00  0.00  0.00
  WS02006109WS02006110    1.00   0.00  0.01  0.00  0.98  0.00  0.01  0.00  0.00  0.00
  WS02006110WS02006113    1.00   0.01  0.01  0.00  0.98  0.00  0.00  0.00  0.00  0.00
  WS02006111WS02006112    1.00   0.02  0.00  0.00  0.98  0.00  0.00  0.00  0.98  0.00
  WS02006112WS02006115    1.00   0.02  0.00  0.00  0.97  0.00  0.00  0.00  0.00  0.00
  WS02006113WS02006111    1.00   0.02  0.00  0.00  0.00  0.98  0.00  0.00  0.15  0.00
  WS02006115WS02006116    1.00   0.02  0.00  0.00  0.97  0.00  0.00  0.01  0.00  0.00
  WS02006116WS02004401    1.00   0.02  0.00  0.00  0.98  0.00  0.00  0.00  0.00  0.00
  WS02006228WS02006109    1.00   0.00  0.00  0.00  1.00  0.00  0.00  0.00  0.00  0.00
  WS02006229WS02006228    1.00   0.00  0.00  0.00  0.99  0.00  0.00  0.01  0.00  0.00
  WS02006230WS02006229    1.00   0.00  0.00  0.00  0.99  0.00  0.00  0.01  0.03  0.00
  WS02006231WS02006230    1.00   0.00  0.00  0.00  0.39  0.00  0.61  0.00  0.00  0.00
  WS02006232WS02006231    1.00   0.00  0.00  0.00  0.99  0.00  0.01  0.00  0.00  0.00
  WS02006234WS02006232    1.00   0.00  0.00  0.00  1.00  0.00  0.00  0.00  0.33  0.00
  WS02006235WS02006234    1.00   0.00  0.00  0.00  0.63  0.00  0.37  0.00  0.00  0.00
  WS02006238WS02006235    1.00   0.00  0.00  0.00  1.00  0.00  0.00  0.00  0.00  0.00
  WS02006239WS02006238    1.00   0.00  0.00  0.00  1.00  0.00  0.00  0.00  0.43  0.00
  WS02006240WS02006239    1.00   0.00  0.00  0.00  0.54  0.00  0.00  0.46  0.01  0.00
  WS02006242WS02006240    1.00   0.00  0.00  0.00  1.00  0.00  0.00  0.00  0.00  0.00
  WS02006243WS02006242    1.00   0.00  0.00  0.00  0.99  0.00  0.00  0.00  0.53  0.00
  WS02006245WS02006243    1.00   0.00  0.00  0.00  0.58  0.00  0.00  0.42  0.00  0.00
  WS02006247WS02006245    1.00   0.00  0.00  0.00  0.99  0.00  0.00  0.01  0.00  0.00
  WS02006248WS02006247    1.00   0.00  0.00  0.00  0.99  0.00  0.00  0.01  0.14  0.00
  WS02006249WS02006248    1.00   0.00  0.00  0.00  0.45  0.00  0.55  0.00  0.00  0.00
  WS02006251WS02006249    1.00   0.00  0.00  0.00  1.00  0.00  0.00  0.00  0.57  0.00
  WS02006252WS02006251    1.00   0.00  0.59  0.00  0.28  0.00  0.13  0.00  0.00  0.00
  WS02006256WS02006235    1.00   0.00  0.00  0.00  1.00  0.00  0.00  0.00  0.00  0.00
  WSF200WS02003060        1.00   0.00  0.06  0.00  0.40  0.54  0.00  0.00  0.53  0.00
  YS02001580YS02001583    1.00   0.14  0.49  0.00  0.37  0.00  0.00  0.00  0.58  0.00
  YS02001583YS02001586    1.00   0.36  0.22  0.00  0.43  0.00  0.00  0.00  0.58  0.00
  YS02001586YS02001590    1.00   0.13  0.00  0.00  0.53  0.03  0.00  0.31  0.27  0.00
  YS02001590YS02001593    1.00   0.13  0.00  0.00  0.29  0.00  0.58  0.00  0.00  0.00
  YS02001593YS02001596    1.00   0.13  0.00  0.00  0.30  0.01  0.00  0.57  0.01  0.00
  YS02001596YS02001600    1.00   0.13  0.00  0.00  0.33  0.01  0.00  0.53  0.02  0.00
  YS02001600YS02001601    1.00   0.13  0.00  0.00  0.87  0.00  0.00  0.00  0.51  0.00
  YS02001601YS02001602    1.00   0.13  0.00  0.00  0.87  0.00  0.00  0.00  0.00  0.00
  YS02001602YS02001605    1.00   0.13  0.00  0.00  0.87  0.00  0.00  0.00  0.00  0.00
  YS02001605YS02001607    1.00   0.13  0.00  0.00  0.87  0.00  0.00  0.00  0.00  0.00
  YS02001607YS02001610    1.00   0.13  0.00  0.00  0.87  0.00  0.00  0.00  0.00  0.00
  YS02001610YS02001613    1.00   0.13  0.00  0.00  0.87  0.00  0.00  0.00  0.00  0.00
  YS02001613YS02001616    1.00   0.13  0.00  0.00  0.87  0.00  0.00  0.00  0.00  0.00
  YS02001616YS02001619    1.00   0.13  0.00  0.00  0.87  0.00  0.00  0.00  0.00  0.00
  YS02001619YS02001622    1.00   0.13  0.00  0.00  0.87  0.00  0.00  0.00  0.23  0.00
  YS02001622YS02001625    1.00   0.13  0.00  0.00  0.87  0.00  0.00  0.00  0.00  0.00
  YS02001625YS02001629    1.00   0.13  0.01  0.00  0.33  0.00  0.53  0.00  0.00  0.00
  YS02001629YS02163301    1.00   0.13  0.00  0.00  0.87  0.00  0.00  0.00  0.00  0.00
  YS02001633YS02163601    1.00   0.00  0.01  0.00  0.99  0.00  0.00  0.00  0.12  0.00
  YS02001641YS02001644    1.00   0.00  0.01  0.00  0.99  0.00  0.00  0.00  0.00  0.00
  YS02001644YS02001647    1.00   0.00  0.13  0.00  0.87  0.00  0.00  0.00  0.00  0.00
  YS02001647YS02001649    1.00   0.00  0.13  0.00  0.65  0.22  0.00  0.00  0.51  0.00
  YS02001649YS02001757    1.00   0.00  0.00  0.00  0.76  0.23  0.00  0.00  0.31  0.00
  YS02001652YS02001649    1.00   0.00  0.00  0.00  1.00  0.00  0.00  0.00  0.62  0.00
  YS02001655YS02001652    1.00   0.00  0.00  0.00  0.36  0.00  0.00  0.64  0.02  0.00
  YS02001658YS02001655    1.00   0.00  0.13  0.00  0.83  0.04  0.00  0.00  0.54  0.00
  YS02001661YS02001658    1.00   0.13  0.00  0.00  0.69  0.19  0.00  0.00  0.57  0.00
  YS02001664YS02001661    1.00   0.13  0.00  0.00  0.85  0.03  0.00  0.00  0.67  0.00
  YS02001745YS02001748    1.00   0.00  0.00  0.00  0.32  0.00  0.00  0.68  0.05  0.00
  YS02001748YS02001751    1.00   0.00  0.00  0.00  0.98  0.02  0.00  0.00  0.65  0.00
  YS02001751YS02001754    1.00   0.00  0.00  0.00  0.36  0.00  0.00  0.64  0.02  0.00
  YS02001754YS02001757    1.00   0.00  0.00  0.00  1.00  0.00  0.00  0.00  0.63  0.00
  YS02001757CaochengTiaoxuchi    1.00   0.00  0.00  0.00  0.98  0.02  0.00  0.00  0.62  0.00
  YS02001759YS02001757    1.00   0.00  0.00  0.00  0.99  0.01  0.00  0.00  0.55  0.00
  YS02001762YS02001759    1.00   0.00  0.00  0.00  1.00  0.00  0.00  0.00  0.01  0.00
  YS02001765YS02001762    1.00   0.00  0.00  0.00  1.00  0.00  0.00  0.00  0.60  0.00
  YS02001767YS02001765    1.00   0.00  0.00  0.00  1.00  0.00  0.00  0.00  0.00  0.00
  YS02001770YS02001767    1.00   0.00  0.00  0.00  1.00  0.00  0.00  0.00  0.00  0.00
  YS02001774YS02001770    1.00   0.00  0.13  0.00  0.74  0.00  0.13  0.00  0.00  0.00
  YS02001779YS02001774    1.00   0.00  0.00  0.00  1.00  0.00  0.00  0.00  0.63  0.00
  YS02001783YS02001784    1.00   0.00  0.13  0.00  0.87  0.00  0.00  0.00  0.51  0.00
  YS02001784YS02001785    1.00   0.00  0.00  0.00  1.00  0.00  0.00  0.00  0.12  0.00
  YS02001786YS02001788    1.00   0.00  0.00  0.00  0.89  0.11  0.00  0.00  0.00  0.00
  YS02001788YS02001790    1.00   0.00  0.00  0.00  0.27  0.73  0.00  0.00  0.71  0.00
  YS02001790YS02001791    1.00   0.00  0.00  0.00  0.01  0.99  0.00  0.00  0.10  0.00
  YS02001791YS02001793    1.00   0.00  0.00  0.00  0.00  1.00  0.00  0.00  0.04  0.00
  YS02001793JiankangQianchi    1.00   0.00  0.00  0.00  0.83  0.17  0.00  0.00  0.90  0.00
  YS02001882YS02001884    1.00   0.13  0.00  0.00  0.87  0.00  0.00  0.00  0.00  0.00
  YS02001884YS02001887    1.00   0.06  0.05  0.00  0.89  0.00  0.00  0.00  0.00  0.00
  YS02001887YS02001890    1.00   0.00  0.00  0.00  0.97  0.00  0.03  0.00  0.00  0.00
  YS02001890YS02001895    1.00   0.00  0.13  0.00  0.87  0.00  0.00  0.00  0.00  0.00
  YS02001895YS02001898    1.00   0.13  0.00  0.00  0.86  0.00  0.00  0.00  0.00  0.00
  YS02001898YS02001901    1.00   0.13  0.00  0.00  0.87  0.00  0.00  0.00  0.00  0.00
  YS02001901YS02001904    1.00   0.13  0.00  0.00  0.87  0.00  0.00  0.00  0.00  0.00
  YS02001904YS02001907    1.00   0.00  0.13  0.00  0.87  0.00  0.00  0.00  0.00  0.00
  YS02001907YS02006553    1.00   0.00  0.02  0.00  0.98  0.00  0.00  0.00  0.00  0.00
  YS02001910YS02001907    1.00   0.00  0.00  0.00  0.97  0.00  0.00  0.03  0.10  0.00
  YS02001915YS02001910    1.00   0.00  0.00  0.00  0.98  0.02  0.00  0.00  0.10  0.00
  YS02001918YS02001915    1.00   0.00  0.01  0.00  0.98  0.02  0.00  0.00  0.60  0.00
  YS02001920YS02001918    1.00   0.00  0.01  0.00  0.99  0.00  0.00  0.00  0.00  0.00
  YS02001923YS02001920    1.00   0.00  0.00  0.00  1.00  0.00  0.00  0.00  0.74  0.00
  YS02001926YS02001923    1.00   0.00  0.07  0.00  0.25  0.00  0.67  0.00  0.00  0.00
  YS02001929YS02001926    1.00   0.00  0.13  0.00  0.87  0.00  0.00  0.00  0.62  0.00
  YS02006553YS02006556    1.00   0.01  0.00  0.00  0.99  0.00  0.00  0.00  0.03  0.00
  YS02006556YS02006558    1.00   0.00  0.00  0.00  1.00  0.00  0.00  0.00  0.00  0.00
  YS02006558YS02006561    1.00   0.13  0.00  0.00  0.25  0.62  0.00  0.00  0.13  0.00
  YS02006561YS02001783    1.00   0.13  0.00  0.00  0.26  0.60  0.00  0.00  0.59  0.00
  YS02163301YS02001633    1.00   0.00  0.13  0.00  0.87  0.00  0.00  0.00  0.00  0.00
  YS02163601YS02164001    1.00   0.00  0.08  0.00  0.92  0.00  0.00  0.00  0.00  0.00
  YS02164001YS02001641    1.00   0.01  0.07  0.00  0.92  0.00  0.00  0.00  0.05  0.00
  
  
  *************************
  Conduit Surcharge Summary
  *************************
  
  ----------------------------------------------------------------------------
                                                           Hours        Hours 
                         --------- Hours Full --------   Above Full   Capacity
  Conduit                Both Ends  Upstream  Dnstream   Normal Flow   Limited
  ----------------------------------------------------------------------------
  WS02003072WS02003073        0.01      0.01      0.01      2.18         0.01
  WS02004404WS02004405        0.01      0.01      0.01      3.62         0.01
  WS02004405WS02004406        0.01      0.01      0.01      2.11         0.01
  WS02006109WS02006110        2.19      2.19      3.03      2.21         0.01
  WS02006110WS02006113        0.01      0.01      3.02      0.01         0.01
  WS02006111WS02006112        0.01      0.01      3.08      0.01         0.01
  WS02006112WS02006115        0.01      0.01      2.12      0.01         0.01
  WS02006228WS02006109        3.01      3.03      3.01      3.21         3.01
  WS02006229WS02006228        3.00      3.01      3.00      3.11         3.00
  WS02006230WS02006229        3.04      3.06      3.04      3.99         3.04
  WS02006231WS02006230        2.20      2.20      2.21      3.79         0.01
  WS02006232WS02006231        2.21      2.21      3.03      2.23         0.01
  WS02006234WS02006232        3.00      3.01      3.03      2.22         2.20
  WS02006235WS02006234        2.26      2.26      3.01      3.66         0.01
  WS02006238WS02006235        3.02      3.02      3.03      0.01         0.01
  WS02006239WS02006238        3.02      3.02      3.02      3.09         2.61
  WS02006240WS02006239        3.01      3.01      3.01      3.09         2.38
  WS02006242WS02006240        3.01      3.01      3.04      3.16         0.01
  WS02006243WS02006242        3.00      3.00      3.02      0.01         0.01
  WS02006245WS02006243        3.00      3.00      3.00      0.92         1.38
  WS02006247WS02006245        3.00      3.00      3.00      3.22         3.00
  WS02006248WS02006247        2.99      2.99      3.00      0.01         0.01
  WS02006249WS02006248        2.99      2.99      2.99      3.21         0.01
  WS02006251WS02006249        2.99      2.99      2.99      3.17         2.98
  WS02006252WS02006251        3.19      3.19      3.19      3.19         0.01
  WS02006256WS02006235        3.72      3.73      4.55      2.55         0.01
  YS02001580YS02001583        2.08      2.08      2.11      0.01         0.01
  YS02001583YS02001586        2.08      2.08      2.17      0.01         0.01
  YS02001586YS02001590        2.18      2.18      2.22      0.01         0.01
  YS02001590YS02001593        2.22      2.22      2.23      2.26         0.01
  YS02001593YS02001596        2.23      2.23      2.28      0.01         0.01
  YS02001596YS02001600        2.30      2.30      2.37      0.01         0.01
  YS02001600YS02001601        2.40      2.40      2.55      0.01         0.01
  YS02001601YS02001602        2.51      2.51      2.57      2.30         0.01
  YS02001602YS02001605        2.49      2.49      2.51      3.00         0.01
  YS02001605YS02001607        2.48      2.49      2.50      2.40         2.37
  YS02001607YS02001610        2.24      2.24      2.26      0.01         0.01
  YS02001610YS02001613        2.24      2.24      2.26      0.01         0.01
  YS02001613YS02001616        2.21      2.21      2.24      0.01         0.01
  YS02001616YS02001619        2.20      2.20      2.21      0.01         0.07
  YS02001619YS02001622        2.20      2.20      2.21      2.13         1.98
  YS02001622YS02001625        2.21      2.21      2.35      0.01         0.01
  YS02001625YS02001629        2.18      2.18      2.35      0.01         0.01
  YS02001629YS02163301        2.37      2.37      2.38      0.01         0.05
  YS02001633YS02163601        2.40      2.40      2.44      0.20         0.19
  YS02001641YS02001644        2.40      2.41      2.40      2.62         2.09
  YS02001644YS02001647        2.28      2.28      2.40      0.03         0.01
  YS02001647YS02001649        2.28      2.28      2.40      0.01         0.01
  YS02001649YS02001757        2.40      2.40      2.48      0.26         0.23
  YS02001652YS02001649        2.27      2.27      2.40      0.01         0.01
  YS02001655YS02001652        2.00      2.00      2.25      0.01         0.01
  YS02001658YS02001655        1.65      1.65      2.00      0.01         0.01
  YS02001661YS02001658        0.13      0.13      1.65      0.01         0.01
  YS02001664YS02001661        0.01      0.01      0.53      0.01         0.01
  YS02001745YS02001748        0.01      0.01      1.50      0.01         0.01
  YS02001748YS02001751        1.60      1.60      1.86      0.01         0.01
  YS02001751YS02001754        1.86      1.86      2.16      0.01         0.01
  YS02001754YS02001757        2.24      2.24      2.48      0.01         0.01
  YS02001757CaochengTiaoxuchi        2.39      2.48      2.81      0.79         0.68
  YS02001759YS02001757        2.41      2.41      2.48      0.01         0.02
  YS02001762YS02001759        2.38      2.38      2.41      0.01         0.03
  YS02001765YS02001762        2.34      2.34      2.38      0.01         0.01
  YS02001767YS02001765        2.31      2.32      2.34      0.03         0.05
  YS02001770YS02001767        2.31      2.31      2.32      2.00         1.72
  YS02001774YS02001770        2.29      2.29      2.36      0.01         0.01
  YS02001779YS02001774        2.13      2.13      2.36      0.01         0.01
  YS02001783YS02001784        2.00      2.02      2.00      2.07         2.00
  YS02001784YS02001785        1.94      2.00      1.94      2.14         1.94
  YS02001786YS02001788        0.01      1.94      0.01      2.11         0.01
  YS02001790YS02001791        0.01      0.01      0.01      1.99         0.01
  YS02001793JiankangQianchi        0.01      0.01      7.60      0.01         0.01
  YS02001882YS02001884        1.98      1.98      1.99      0.01         0.01
  YS02001884YS02001887        2.00      2.00      2.01      0.01         0.01
  YS02001887YS02001890        2.02      2.02      2.03      0.15         0.01
  YS02001890YS02001895        1.98      1.98      2.03      0.01         0.01
  YS02001895YS02001898        1.97      1.97      1.98      0.02         0.01
  YS02001898YS02001901        1.98      1.98      2.00      0.01         0.01
  YS02001901YS02001904        2.00      2.00      2.00      0.01         0.01
  YS02001904YS02001907        2.00      2.00      2.11      0.01         0.01
  YS02001907YS02006553        2.14      2.14      2.17      0.01         0.01
  YS02001910YS02001907        2.03      2.03      2.10      0.01         0.01
  YS02001915YS02001910        1.98      1.98      2.03      0.01         0.01
  YS02001918YS02001915        1.87      1.87      1.98      0.01         0.01
  YS02001920YS02001918        1.87      1.87      1.92      0.01         0.01
  YS02001923YS02001920        1.78      1.78      1.92      0.01         0.01
  YS02001926YS02001923        0.01      0.01      0.10      0.01         0.01
  YS02001929YS02001926        0.01      0.01      0.10      0.01         0.01
  YS02006553YS02006556        2.06      2.06      2.10      0.01         0.01
  YS02006556YS02006558        2.09      2.09      2.11      0.01         0.01
  YS02006558YS02006561        1.95      2.06      1.95      2.13         1.95
  YS02006561YS02001783        1.79      1.79      2.02      0.01         0.01
  YS02163301YS02001633        2.38      2.38      2.42      0.01         0.01
  YS02163601YS02164001        2.40      2.40      2.44      0.02         0.01
  YS02164001YS02001641        2.40      2.40      2.41      0.43         0.46
  
  
  ***************
  Pumping Summary
  ***************
  
  ---------------------------------------------------------------------------------------------------------
                                                  Min       Avg       Max     Total     Power    % Time Off
                        Percent   Number of      Flow      Flow      Flow    Volume     Usage    Pump Curve
  Pump                 Utilized   Start-Ups       LPS       LPS       LPS  10^6 ltr     Kw-hr    Low   High
  ---------------------------------------------------------------------------------------------------------
  CC-R1                   39.60           2      0.00    683.00    683.00     7.709    152.42    0.0   56.6
  CC-R2                   38.36           2      0.00    683.00    683.00     7.466    147.91    0.0   58.4
  CC-S1                   40.92           2      0.00    200.00    200.00     2.333     10.43    0.0   43.1
  CC-S2                   40.32           2      0.00    200.00    200.00     2.298     10.22    0.0   43.8
  JK-R1                   22.15           7      0.00   1000.00   1000.00     6.311     61.03    0.0    0.0
  JK-R2                    0.17           1      0.00   1000.00   1000.00     0.047      0.36    0.0    0.0
  JK-S                    32.23           3      0.00    300.00    300.00     2.755     44.11    0.0    0.0
  

  Analysis begun on:  Thu Feb 27 17:15:33 2025
  Analysis ended on:  Thu Feb 27 17:15:34 2025
  Total elapsed time: 00:00:01