
  EPA STORM WATER MANAGEMENT MODEL - VERSION 5.2 (Build 5.2.4)
  PYSWMM TOOLKIT API - VERSION v1.0 (2023-11-27)
  ------------------------------------------------------------

  WARNING 04: minimum elevation drop used for Conduit WS02004404WS02004405
  WARNING 03: negative offset ignored for Link YS02001904YS02001907
  
  ****************
  Analysis Options
  ****************
  Flow Units ............... LPS
  Process Models:
    Rainfall/Runoff ........ YES
    RDII ................... NO
    Snowmelt ............... NO
    Groundwater ............ NO
    Flow Routing ........... YES
    Ponding Allowed ........ NO
    Water Quality .......... NO
  Infiltration Method ...... HORTON
  Flow Routing Method ...... DYNWAVE
  Surcharge Method ......... EXTRAN
  Starting Date ............ 08/28/2015 08:00:00
  Ending Date .............. 08/28/2015 16:00:00
  Antecedent Dry Days ...... 8.0
  Report Time Step ......... 00:01:00
  Wet Time Step ............ 00:01:00
  Dry Time Step ............ 00:01:00
  Routing Time Step ........ 30.00 sec
  Variable Time Step ....... YES
  Maximum Trials ........... 8
  Number of Threads ........ 4
  Head Tolerance ........... 0.001500 m
  
  
  **************************        Volume         Depth
  Runoff Quantity Continuity     hectare-m            mm
  **************************     ---------       -------
  Total Precipitation ......         2.789        84.091
  Evaporation Loss .........         0.000         0.000
  Infiltration Loss ........         0.101         3.054
  Surface Runoff ...........         2.656        80.063
  Final Storage ............         0.033         0.997
  Continuity Error (%) .....        -0.027
  
  
  **************************        Volume        Volume
  Flow Routing Continuity        hectare-m      10^6 ltr
  **************************     ---------     ---------
  Dry Weather Inflow .......         0.025         0.248
  Wet Weather Inflow .......         2.656        26.557
  Groundwater Inflow .......         0.000         0.000
  RDII Inflow ..............         0.000         0.000
  External Inflow ..........         0.083         0.825
  External Outflow .........         1.732        17.322
  Flooding Loss ............         1.053        10.531
  Evaporation Loss .........         0.000         0.000
  Exfiltration Loss ........         0.000         0.000
  Initial Stored Volume ....         0.243         2.431
  Final Stored Volume ......         0.228         2.276
  Continuity Error (%) .....        -0.224
  
  
  *************************
  Highest Continuity Errors
  *************************
  Node YS02001583 (-11.59%)
  Node YS02001884 (4.68%)
  
  
  ***************************
  Time-Step Critical Elements
  ***************************
  Link WS02004404WS02004405 (38.83%)
  Link WS02006238WS02006235 (13.36%)
  Link YS02001791YS02001793 (12.62%)
  Link WS02003066WSF200 (10.13%)
  Link YS02006556YS02006558 (8.48%)
  
  
  ********************************
  Highest Flow Instability Indexes
  ********************************
  Link WS02006113WS02006111 (31)
  Link WS02006238WS02006235 (28)
  Link WS02004404WS02004405 (27)
  Link WS02004403WS02004404 (25)
  Link WS02006111WS02006112 (24)
  
  
  *********************************
  Most Frequent Nonconverging Nodes
  *********************************
  Node CC-1 (13.19%)
  Node CC-2 (13.19%)
  Node JK-1 (13.19%)
  Node JK-2 (13.19%)
  Node WSC (13.19%)
  
  
  *************************
  Routing Time Step Summary
  *************************
  Minimum Time Step           :     0.02 sec
  Average Time Step           :     3.29 sec
  Maximum Time Step           :     6.43 sec
  % of Time in Steady State   :     0.00
  Average Iterations per Step :     3.51
  % of Steps Not Converging   :    13.19
  Time Step Frequencies       :
     30.000 - 13.228 sec      :     0.00 %
     13.228 -  5.833 sec      :    19.37 %
      5.833 -  2.572 sec      :    28.09 %
      2.572 -  1.134 sec      :    43.48 %
      1.134 -  0.500 sec      :     9.06 %
  
  
  ***************************
  Subcatchment Runoff Summary
  ***************************
  
  ------------------------------------------------------------------------------------------------------------------------------
                            Total      Total      Total      Total     Imperv       Perv      Total       Total     Peak  Runoff
                           Precip      Runon       Evap      Infil     Runoff     Runoff     Runoff      Runoff   Runoff   Coeff
  Subcatchment                 mm         mm         mm         mm         mm         mm         mm    10^6 ltr      LPS
  ------------------------------------------------------------------------------------------------------------------------------
  sub60                     84.09       0.00       0.00       1.85      72.81       8.24      81.05        1.06   682.87   0.964
  sub61                     84.09       0.00       0.00       2.68      68.67      11.62      80.29        1.47   943.84   0.955
  sub62                     84.09       0.00       0.00       1.24      76.08       5.50      81.58        2.24  1327.97   0.970
  sub63                     84.09       0.00       0.00       4.92      58.74      19.47      78.21        1.78  1044.66   0.930
  sub64                     84.09       0.00       0.00       2.49      70.28      10.13      80.40        1.93  1073.49   0.956
  sub65                     84.09       0.00       0.00       2.16      71.91       8.78      80.69        2.22  1197.95   0.960
  sub66                     84.09       0.00       0.00       6.03      58.63      18.36      76.99        3.59  1546.12   0.916
  sub67                     84.09       0.00       0.00       1.19      76.13       5.54      81.67        1.52  1038.30   0.971
  sub68                     84.09       0.00       0.00       2.22      71.14       9.55      80.69        2.22  1363.13   0.960
  sub69                     84.09       0.00       0.00       1.98      71.37      10.64      82.01        3.04  1599.51   0.975
  sub70                     84.09       0.00       0.00       6.52      55.34      22.08      77.41        2.24   870.02   0.921
  sub71                     84.09       0.00       0.00       1.27      76.04       5.46      81.51        2.13  1163.50   0.969
  sub72                     84.09       0.00       0.00       1.12      76.81       4.76      81.57        1.12   558.92   0.970
  
  
  ******************
  Node Depth Summary
  ******************
  
  ---------------------------------------------------------------------------------
                                 Average  Maximum  Maximum  Time of Max    Reported
                                   Depth    Depth      HGL   Occurrence   Max Depth
  Node                 Type       Meters   Meters   Meters  days hr:min      Meters
  ---------------------------------------------------------------------------------
  WS02003060           JUNCTION     0.22     0.39     5.32     0  02:10        0.39
  WS02003066           JUNCTION     0.18     0.30     5.85     0  02:10        0.30
  WS02003067           JUNCTION     0.47     0.70     6.02     0  02:10        0.70
  WS02003069           JUNCTION     0.24     0.43     5.02     0  02:11        0.43
  WS02003072           JUNCTION     0.30     0.50     4.87     0  02:12        0.50
  WS02003073           JUNCTION     0.17     0.30     4.36     0  02:12        0.30
  WS02004401           JUNCTION     0.58     0.88     6.88     0  02:10        0.88
  WS02004402           JUNCTION     0.61     0.91     6.87     0  02:10        0.91
  WS02004403           JUNCTION     0.63     0.93     6.86     0  02:06        0.92
  WS02004404           JUNCTION     0.70     1.05     6.90     0  02:06        1.02
  WS02004405           JUNCTION     0.69     0.97     6.82     0  02:08        0.97
  WS02004406           JUNCTION     0.70     0.96     6.79     0  02:08        0.96
  WS02004407           JUNCTION     0.16     0.30     6.61     0  02:08        0.30
  WS02004409           JUNCTION     0.36     0.67     6.44     0  02:08        0.67
  WS02004410           JUNCTION     0.39     0.68     6.40     0  02:09        0.68
  WS02004411           JUNCTION     0.41     0.69     6.37     0  02:09        0.69
  WS02004412           JUNCTION     0.43     0.70     6.34     0  02:09        0.70
  WS02004413           JUNCTION     0.59     0.86     6.33     0  02:09        0.86
  WS02006109           JUNCTION     0.64     1.05     7.67     0  01:43        0.99
  WS02006110           JUNCTION     0.63     1.03     7.62     0  01:43        0.94
  WS02006111           JUNCTION     0.16     0.29     6.99     0  02:05        0.29
  WS02006112           JUNCTION     0.73     1.10     6.98     0  02:08        1.09
  WS02006113           JUNCTION     0.25     0.46     7.35     0  01:45        0.45
  WS02006115           JUNCTION     0.46     0.78     6.92     0  02:11        0.78
  WS02006116           JUNCTION     0.55     0.86     6.90     0  02:08        0.86
  WS02006228           JUNCTION     0.64     1.09     7.74     0  01:43        1.02
  WS02006229           JUNCTION     0.61     1.11     7.81     0  01:43        1.02
  WS02006230           JUNCTION     0.63     1.24     7.99     0  01:43        1.11
  WS02006231           JUNCTION     0.43     0.98     8.10     0  01:43        0.85
  WS02006232           JUNCTION     0.57     1.15     8.19     0  01:43        1.06
  WS02006234           JUNCTION     0.51     1.16     8.32     0  01:43        1.07
  WS02006235           JUNCTION     0.56     1.25     8.41     0  01:43        1.16
  WS02006238           JUNCTION     0.59     1.28     8.42     0  01:43        1.18
  WS02006239           JUNCTION     0.55     1.26     8.47     0  01:43        1.21
  WS02006240           JUNCTION     0.52     1.22     8.51     0  01:43        1.20
  WS02006242           JUNCTION     0.57     1.29     8.56     0  01:43        1.26
  WS02006243           JUNCTION     0.50     1.18     8.60     0  01:43        1.18
  WS02006245           JUNCTION     0.50     1.15     8.64     0  02:32        1.15
  WS02006247           JUNCTION     0.51     1.15     8.65     0  01:43        1.15
  WS02006248           JUNCTION     0.48     1.10     8.68     0  02:32        1.10
  WS02006249           JUNCTION     0.50     1.09     8.69     0  01:42        1.09
  WS02006251           JUNCTION     0.50     1.52     9.19     0  01:42        1.12
  WS02006252           JUNCTION     0.31     1.50     9.74     0  00:00        0.74
  WS02006256           JUNCTION     1.29     2.35     9.28     0  00:00        2.35
  WSF200               JUNCTION     0.15     0.29     5.53     0  02:10        0.29
  YS02001580           JUNCTION     0.19     1.05     9.59     0  01:33        0.77
  YS02001583           JUNCTION     0.22     1.14     9.64     0  01:33        0.82
  YS02001586           JUNCTION     0.34     1.13     9.30     0  01:33        1.13
  YS02001590           JUNCTION     0.46     1.40     9.26     0  01:33        1.37
  YS02001593           JUNCTION     0.39     1.39     9.25     0  01:32        1.30
  YS02001596           JUNCTION     0.53     1.77     9.19     0  01:32        1.65
  YS02001600           JUNCTION     0.63     1.87     9.00     0  01:32        1.86
  YS02001601           JUNCTION     0.82     2.06     8.90     0  01:32        2.06
  YS02001602           JUNCTION     0.72     1.87     8.77     0  01:33        1.87
  YS02001605           JUNCTION     0.67     1.78     8.68     0  01:33        1.77
  YS02001607           JUNCTION     0.64     1.65     8.50     0  02:06        1.65
  YS02001610           JUNCTION     0.68     1.68     8.48     0  01:33        1.68
  YS02001613           JUNCTION     0.64     1.67     8.51     0  01:35        1.67
  YS02001616           JUNCTION     0.57     1.61     8.52     0  01:33        1.61
  YS02001619           JUNCTION     0.55     1.61     8.54     0  01:33        1.61
  YS02001622           JUNCTION     0.54     1.62     8.52     0  01:33        1.58
  YS02001625           JUNCTION     0.79     1.78     8.38     0  01:33        1.78
  YS02001629           JUNCTION     0.69     1.85     8.40     0  01:33        1.85
  YS02001633           JUNCTION     0.77     2.08     8.53     0  01:36        2.08
  YS02001641           JUNCTION     0.74     1.97     8.41     0  01:35        1.95
  YS02001644           JUNCTION     0.73     1.92     8.35     0  01:35        1.92
  YS02001647           JUNCTION     0.52     1.90     8.51     0  01:36        1.90
  YS02001649           JUNCTION     0.60     2.05     8.44     0  01:35        2.05
  YS02001652           JUNCTION     0.47     2.16     8.76     0  01:35        2.16
  YS02001655           JUNCTION     0.38     2.20     9.05     0  01:35        2.20
  YS02001658           JUNCTION     0.27     2.30     9.44     0  01:35        1.69
  YS02001661           JUNCTION     0.24     2.46     9.86     0  01:36        1.40
  YS02001664           JUNCTION     0.10     2.31    10.23     0  01:36        0.99
  YS02001745           JUNCTION     0.14     2.35     9.87     0  01:36        0.85
  YS02001748           JUNCTION     0.26     2.27     9.35     0  01:36        1.28
  YS02001751           JUNCTION     0.33     2.20     9.08     0  01:36        1.46
  YS02001754           JUNCTION     0.43     2.20     8.81     0  01:35        1.72
  YS02001757           JUNCTION     0.62     2.21     8.47     0  01:36        2.05
  YS02001759           JUNCTION     0.56     2.21     8.57     0  01:36        2.21
  YS02001762           JUNCTION     0.55     2.15     8.55     0  01:35        2.15
  YS02001765           JUNCTION     0.53     2.10     8.55     0  01:35        2.10
  YS02001767           JUNCTION     0.52     2.03     8.52     0  01:35        2.03
  YS02001770           JUNCTION     0.53     1.95     8.44     0  01:35        1.95
  YS02001774           JUNCTION     0.59     2.05     8.47     0  01:35        2.00
  YS02001779           JUNCTION     0.41     1.68     8.37     0  01:35        1.68
  YS02001783           JUNCTION     0.37     1.83     7.97     0  01:35        1.83
  YS02001784           JUNCTION     0.37     1.54     7.61     0  01:35        1.54
  YS02001786           JUNCTION     0.30     1.21     7.24     0  01:35        0.89
  YS02001788           JUNCTION     0.22     0.63     6.60     0  01:36        0.62
  YS02001790           JUNCTION     0.26     0.73     6.37     0  01:43        0.72
  YS02001791           JUNCTION     0.16     0.44     5.91     0  01:36        0.44
  YS02001793           JUNCTION     0.08     0.30     5.13     0  01:56        0.28
  YS02001882           JUNCTION     0.46     1.83     8.55     0  01:34        1.72
  YS02001884           JUNCTION     0.54     1.93     8.55     0  01:34        1.82
  YS02001887           JUNCTION     0.62     2.00     8.54     0  01:34        1.92
  YS02001890           JUNCTION     0.65     1.81     8.32     0  01:34        1.81
  YS02001895           JUNCTION     0.42     1.67     8.41     0  01:34        1.57
  YS02001898           JUNCTION     0.43     1.72     8.46     0  01:34        1.58
  YS02001901           JUNCTION     0.54     1.80     8.41     0  01:34        1.69
  YS02001904           JUNCTION     0.52     1.70     8.33     0  01:34        1.64
  YS02001907           JUNCTION     0.83     1.96     8.25     0  01:34        1.96
  YS02001910           JUNCTION     0.64     2.02     8.53     0  01:36        2.02
  YS02001915           JUNCTION     0.47     2.00     8.72     0  01:36        2.00
  YS02001918           JUNCTION     0.29     1.81     8.88     0  01:34        1.81
  YS02001920           JUNCTION     0.37     2.14     9.15     0  01:35        1.93
  YS02001923           JUNCTION     0.24     2.03     9.29     0  01:35        1.73
  YS02001926           JUNCTION     0.25     1.90     9.35     0  01:35        1.52
  YS02001929           JUNCTION     0.16     1.78     9.47     0  01:35        1.17
  YS02006553           JUNCTION     0.83     2.19     8.47     0  01:35        2.19
  YS02006556           JUNCTION     0.80     2.39     8.70     0  01:35        2.39
  YS02006558           JUNCTION     0.84     2.50     8.77     0  01:35        2.50
  YS02006561           JUNCTION     0.23     1.54     8.20     0  01:35        1.54
  YS02163301           JUNCTION     0.72     1.98     8.50     0  01:33        1.96
  YS02163601           JUNCTION     0.80     2.07     8.47     0  01:35        2.04
  YS02164001           JUNCTION     0.73     1.99     8.44     0  01:35        1.93
  CC-1                 OUTFALL      0.00     0.00     0.00     0  00:00        0.00
  CC-2                 OUTFALL      0.00     0.00     0.00     0  00:00        0.00
  JK-1                 OUTFALL      0.00     0.00     0.00     0  00:00        0.00
  JK-2                 OUTFALL      0.00     0.00     0.00     0  00:00        0.00
  WSC                  OUTFALL      0.17     0.30     0.97     0  02:13        0.30
  CC-storage           STORAGE      0.98     1.80     7.30     0  02:20        1.80
  JK-storage           STORAGE      2.21     4.23     5.03     0  01:56        4.20
  
  
  *******************
  Node Inflow Summary
  *******************
  
  -------------------------------------------------------------------------------------------------
                                  Maximum  Maximum                  Lateral       Total        Flow
                                  Lateral    Total  Time of Max      Inflow      Inflow     Balance
                                   Inflow   Inflow   Occurrence      Volume      Volume       Error
  Node                 Type           LPS      LPS  days hr:min    10^6 ltr    10^6 ltr     Percent
  -------------------------------------------------------------------------------------------------
  WS02003060           JUNCTION     16.53   558.48     0  02:10       0.471        4.72       0.040
  WS02003066           JUNCTION      0.00   541.63     0  02:10           0        4.25       0.029
  WS02003067           JUNCTION      0.00   541.55     0  02:10           0        4.25       0.093
  WS02003069           JUNCTION      0.32   558.50     0  02:11     0.00912        4.73       0.072
  WS02003072           JUNCTION      0.00   558.05     0  02:11           0        4.72       0.135
  WS02003073           JUNCTION      1.82   559.68     0  02:12      0.0519        4.77       0.102
  WS02004401           JUNCTION      0.00   542.01     0  02:07           0        4.34       0.229
  WS02004402           JUNCTION      0.00   544.12     0  02:42           0        4.33       0.232
  WS02004403           JUNCTION      0.00   544.42     0  02:07           0        4.32       0.224
  WS02004404           JUNCTION      0.16   565.40     0  02:06     0.00462        4.31      -0.022
  WS02004405           JUNCTION      0.04   611.03     0  02:46     0.00109        4.32       0.222
  WS02004406           JUNCTION      0.00   550.81     0  02:08           0        4.31       0.476
  WS02004407           JUNCTION      0.00   544.30     0  02:08           0        4.29       0.019
  WS02004409           JUNCTION      0.00   543.39     0  02:08           0        4.29       0.050
  WS02004410           JUNCTION      0.00   542.69     0  02:08           0        4.28       0.091
  WS02004411           JUNCTION      0.00   542.25     0  02:09           0        4.28       0.119
  WS02004412           JUNCTION      0.00   542.03     0  02:09           0        4.27       0.162
  WS02004413           JUNCTION      0.00   541.92     0  02:09           0        4.27       0.298
  WS02006109           JUNCTION      1.23   551.00     0  01:43      0.0351        4.38       0.207
  WS02006110           JUNCTION      0.00   552.12     0  01:43           0        4.37       0.143
  WS02006111           JUNCTION      0.00   559.83     0  02:34           0        4.37       0.017
  WS02006112           JUNCTION      0.00   543.01     0  02:05           0        4.37       0.458
  WS02006113           JUNCTION      0.00   564.44     0  01:43           0        4.37       0.034
  WS02006115           JUNCTION      0.00   552.53     0  02:08           0        4.35       0.144
  WS02006116           JUNCTION      0.00   542.91     0  02:08           0        4.34       0.007
  WS02006228           JUNCTION      0.00   550.10     0  01:43           0        4.35       0.084
  WS02006229           JUNCTION      0.00   549.67     0  01:43           0        4.36       0.124
  WS02006230           JUNCTION     10.28   565.55     0  01:43       0.293        4.36       0.122
  WS02006231           JUNCTION      0.00   553.68     0  01:43           0        4.07      -0.061
  WS02006232           JUNCTION      0.00   553.56     0  01:43           0        4.08       0.224
  WS02006234           JUNCTION      0.00   554.02     0  01:43           0        4.07      -0.174
  WS02006235           JUNCTION      0.00   555.12     0  01:43           0        4.16       0.205
  WS02006238           JUNCTION      0.00   421.29     0  03:19           0        2.77      -0.115
  WS02006239           JUNCTION      0.00   421.53     0  03:19           0        2.73      -0.067
  WS02006240           JUNCTION      0.00   419.06     0  03:20           0        2.69      -0.061
  WS02006242           JUNCTION      0.00   418.82     0  03:20           0        2.66      -0.039
  WS02006243           JUNCTION      0.00   418.08     0  03:20           0        2.63      -0.130
  WS02006245           JUNCTION      0.00   418.50     0  03:19           0        2.63       0.299
  WS02006247           JUNCTION      0.00   417.86     0  03:19           0        2.63       0.022
  WS02006248           JUNCTION      0.00   418.31     0  03:19           0        2.63       0.070
  WS02006249           JUNCTION      0.00   459.02     0  00:00           0        3.04       0.168
  WS02006251           JUNCTION      0.08   411.01     0  01:42     0.00219        3.04      -0.018
  WS02006252           JUNCTION      0.00   400.00     0  00:00           0        3.04      -0.019
  WS02006256           JUNCTION      0.00   300.00     0  00:00           0        2.11      -0.139
  WSF200               JUNCTION      0.00   541.70     0  02:10           0        4.25       0.007
  YS02001580           JUNCTION      0.00   162.91     0  01:33           0     0.00472      -4.187
  YS02001583           JUNCTION      0.00   275.10     0  01:33           0       0.015     -10.390
  YS02001586           JUNCTION    870.02   870.05     0  01:42        2.24        2.25       0.069
  YS02001590           JUNCTION      0.00   317.96     0  02:09           0        1.59      -0.038
  YS02001593           JUNCTION      0.00   318.03     0  01:41           0        1.59       0.004
  YS02001596           JUNCTION      0.00   318.02     0  02:03           0        1.59      -0.013
  YS02001600           JUNCTION      0.00   318.06     0  02:03           0        1.59       0.005
  YS02001601           JUNCTION   1599.51  1917.29     0  01:40        3.04        4.62       0.009
  YS02001602           JUNCTION      0.00   576.32     0  01:33           0        2.57       0.017
  YS02001605           JUNCTION      0.00   576.06     0  01:33           0         2.4       0.019
  YS02001607           JUNCTION      0.00   575.97     0  01:33           0         2.4       0.077
  YS02001610           JUNCTION      0.00   874.67     0  01:42           0        2.86       0.071
  YS02001613           JUNCTION      0.00   539.35     0  01:42           0        2.19       0.074
  YS02001616           JUNCTION      0.00   538.66     0  01:42           0        2.19       0.009
  YS02001619           JUNCTION   1546.12  1546.12     0  01:42        3.59        5.32      -0.007
  YS02001622           JUNCTION      0.00  1012.52     0  01:41           0        4.86      -0.016
  YS02001625           JUNCTION      0.00  1427.64     0  01:43           0        5.19       0.171
  YS02001629           JUNCTION      0.00   931.77     0  01:33           0        3.81      -0.015
  YS02001633           JUNCTION   1198.15  1433.49     0  01:34        2.23        5.59       0.054
  YS02001641           JUNCTION      0.00  1430.58     0  01:34           0        5.16       0.050
  YS02001644           JUNCTION   1073.53  1942.08     0  01:34        1.93        7.09       0.032
  YS02001647           JUNCTION      0.00  1944.04     0  01:34           0        6.26       0.005
  YS02001649           JUNCTION      0.00  2203.14     0  01:35           0        8.04       0.003
  YS02001652           JUNCTION      0.00  1089.14     0  01:37           0        1.78      -0.102
  YS02001655           JUNCTION      0.15  1089.39     0  01:37     0.00439        1.78      -0.108
  YS02001658           JUNCTION      0.00  1089.14     0  01:37           0        1.79      -0.068
  YS02001661           JUNCTION      0.00  1089.43     0  01:37           0        1.79       0.038
  YS02001664           JUNCTION   1044.66  1044.66     0  01:39        1.78        1.78      -0.026
  YS02001745           JUNCTION    682.88   784.03     0  01:36        1.07        1.07       0.190
  YS02001748           JUNCTION      0.04   900.01     0  01:36     0.00128        1.07      -0.363
  YS02001751           JUNCTION      0.01   699.13     0  01:38    0.000313        1.08       0.065
  YS02001754           JUNCTION      0.26   699.40     0  01:38     0.00741        1.09      -0.191
  YS02001757           JUNCTION      0.00  3607.03     0  01:37           0        12.4       0.036
  YS02001759           JUNCTION    943.88  1547.66     0  01:36        1.47         3.3      -0.015
  YS02001762           JUNCTION      0.00   776.51     0  01:36           0        1.82      -0.008
  YS02001765           JUNCTION      0.00   778.26     0  01:36           0        1.82      -0.010
  YS02001767           JUNCTION      0.54   779.32     0  01:36      0.0152        1.82      -0.014
  YS02001770           JUNCTION   1328.12  1328.12     0  01:39        2.24        2.29      -0.036
  YS02001774           JUNCTION      0.00   811.10     0  01:39           0       0.496       0.186
  YS02001779           JUNCTION      0.01   810.52     0  01:39    0.000142       0.449      -0.210
  YS02001783           JUNCTION      0.00  1170.62     0  01:36           0        4.78       0.005
  YS02001784           JUNCTION      1.06  1171.76     0  01:36      0.0302        4.81       0.011
  YS02001786           JUNCTION      0.06  1172.05     0  01:36      0.0016        4.81       0.015
  YS02001788           JUNCTION      0.07  1172.99     0  01:36     0.00202        4.81       0.006
  YS02001790           JUNCTION      0.15  1185.68     0  01:36     0.00442        4.82       0.031
  YS02001791           JUNCTION      0.00  1296.85     0  01:36           0        4.81      -0.035
  YS02001793           JUNCTION      0.00  1250.33     0  01:39           0        4.82       0.004
  YS02001882           JUNCTION      0.00    99.32     0  01:34           0      0.0126       2.156
  YS02001884           JUNCTION      0.00   140.83     0  01:33           0      0.0488       4.907
  YS02001887           JUNCTION   1038.75  1038.75     0  01:38        1.53        1.57       0.276
  YS02001890           JUNCTION      0.00  1038.64     0  01:38           0        1.52       0.311
  YS02001895           JUNCTION      0.00   590.86     0  01:34           0         1.3       0.127
  YS02001898           JUNCTION      0.00   596.03     0  01:34           0         1.3       0.009
  YS02001901           JUNCTION      0.00   601.82     0  01:34           0         1.3       0.250
  YS02001904           JUNCTION      0.00   602.19     0  01:34           0        1.31       0.226
  YS02001907           JUNCTION      0.00  2428.62     0  01:39           0        4.68       0.360
  YS02001910           JUNCTION      0.00  1727.74     0  01:40           0        3.33       0.219
  YS02001915           JUNCTION   1163.52  1727.32     0  01:40        2.13        3.39       0.037
  YS02001918           JUNCTION      0.00   702.24     0  01:34           0        1.29       0.002
  YS02001920           JUNCTION      2.87   684.14     0  01:34      0.0818        1.26       0.046
  YS02001923           JUNCTION      0.04   941.94     0  01:34     0.00107        1.17      -0.095
  YS02001926           JUNCTION      0.05  1215.40     0  01:35     0.00149        1.15      -0.066
  YS02001929           JUNCTION    558.92   895.04     0  01:35        1.12        1.13      -0.016
  YS02006553           JUNCTION      0.00   795.63     0  02:06           0        2.68       0.448
  YS02006556           JUNCTION      0.00   796.16     0  02:06           0        2.69       0.299
  YS02006558           JUNCTION   1364.01  1364.01     0  01:39        2.25        4.86       0.073
  YS02006561           JUNCTION      0.00  1175.15     0  01:34           0        4.78      -0.006
  YS02163301           JUNCTION      0.00   897.80     0  01:34           0        3.79       0.034
  YS02163601           JUNCTION      0.11  1432.61     0  01:34     0.00313        5.16       0.090
  YS02164001           JUNCTION      0.00  1432.07     0  01:34           0        5.16       0.036
  CC-1                 OUTFALL       0.00   683.00     0  00:00           0           5       0.000
  CC-2                 OUTFALL       0.00   683.00     0  00:00           0        4.82       0.000
  JK-1                 OUTFALL       0.00  1000.00     0  00:00           0        2.69       0.000
  JK-2                 OUTFALL       0.00  1000.00     0  00:00           0      0.0484       0.000
  WSC                  OUTFALL       0.00   559.50     0  02:13           0        4.76       0.000
  CC-storage           STORAGE       0.00  3607.36     0  01:37           0        14.6      -0.150
  JK-storage           STORAGE       0.00  1277.32     0  01:39           0        4.97      -0.100
  
  
  **********************
  Node Surcharge Summary
  **********************
  
  Surcharging occurs when water rises above the top of the highest conduit.
  ---------------------------------------------------------------------
                                               Max. Height   Min. Depth
                                   Hours       Above Crown    Below Rim
  Node                 Type      Surcharged         Meters       Meters
  ---------------------------------------------------------------------
  WS02004404           JUNCTION        0.18          0.048        2.732
  WS02006109           JUNCTION        1.90          0.229        1.591
  WS02006110           JUNCTION        1.59          0.121        1.729
  WS02006112           JUNCTION        1.54          0.099        1.581
  WS02006228           JUNCTION        1.90          0.259        1.941
  WS02006229           JUNCTION        1.91          0.312        2.138
  WS02006230           JUNCTION        1.59          0.165        1.405
  WS02006231           JUNCTION        1.61          0.266        1.264
  WS02006232           JUNCTION        1.93          0.452        1.028
  WS02006234           JUNCTION        1.67          0.442        0.798
  WS02006235           JUNCTION        1.91          0.536        0.754
  WS02006238           JUNCTION        1.92          0.559        0.871
  WS02006239           JUNCTION        1.90          0.522        0.768
  WS02006240           JUNCTION        1.90          0.509        0.881
  WS02006242           JUNCTION        1.92          0.557        0.263
  WS02006243           JUNCTION        1.90          0.468        0.302
  WS02006245           JUNCTION        1.89          0.443        0.407
  WS02006247           JUNCTION        1.90          0.441        0.319
  WS02006248           JUNCTION        1.89          0.378        0.002
  WS02006249           JUNCTION        1.89          0.390        0.000
  WS02006251           JUNCTION        1.62          0.485        0.695
  WS02006252           JUNCTION        2.09          1.100        0.000
  WS02006256           JUNCTION        3.74          2.050        0.000
  YS02001580           JUNCTION        0.83          0.450        0.000
  YS02001583           JUNCTION        0.84          0.500        0.000
  YS02001586           JUNCTION        1.02          0.510        0.000
  YS02001590           JUNCTION        1.11          0.750        0.000
  YS02001593           JUNCTION        1.11          0.767        0.073
  YS02001596           JUNCTION        1.23          1.042        0.028
  YS02001600           JUNCTION        1.41          1.190        0.000
  YS02001601           JUNCTION        1.70          1.440        0.000
  YS02001602           JUNCTION        1.63          1.270        0.000
  YS02001605           JUNCTION        1.59          1.180        0.000
  YS02001607           JUNCTION        1.12          0.654        0.026
  YS02001610           JUNCTION        1.15          0.680        0.000
  YS02001613           JUNCTION        1.11          0.674        0.026
  YS02001616           JUNCTION        1.07          0.610        0.000
  YS02001619           JUNCTION        1.05          0.610        0.000
  YS02001622           JUNCTION        1.05          0.620        0.000
  YS02001625           JUNCTION        1.25          0.780        0.000
  YS02001629           JUNCTION        0.99          0.470        0.000
  YS02001633           JUNCTION        1.29          1.060        0.000
  YS02001641           JUNCTION        1.26          0.969        0.131
  YS02001644           JUNCTION        1.23          0.920        0.000
  YS02001647           JUNCTION        1.01          0.900        0.000
  YS02001649           JUNCTION        1.17          1.050        0.000
  YS02001652           JUNCTION        0.95          1.130        0.000
  YS02001655           JUNCTION        0.69          1.200        0.000
  YS02001658           JUNCTION        0.35          1.300        0.000
  YS02001661           JUNCTION        0.11          1.390        0.000
  YS02001664           JUNCTION        0.01          1.310        0.000
  YS02001745           JUNCTION        0.01          1.350        0.000
  YS02001748           JUNCTION        0.26          1.190        0.000
  YS02001751           JUNCTION        0.50          1.200        0.000
  YS02001754           JUNCTION        0.83          1.150        0.000
  YS02001757           JUNCTION        1.26          1.210        0.000
  YS02001759           JUNCTION        1.16          1.210        0.000
  YS02001762           JUNCTION        1.12          1.150        0.000
  YS02001765           JUNCTION        1.06          1.100        0.000
  YS02001767           JUNCTION        1.02          1.030        0.000
  YS02001770           JUNCTION        0.99          0.920        0.000
  YS02001774           JUNCTION        1.09          1.050        0.000
  YS02001779           JUNCTION        0.80          0.680        0.000
  YS02001783           JUNCTION        0.70          1.030        0.570
  YS02001784           JUNCTION        0.67          0.738        0.752
  YS02001786           JUNCTION        0.56          0.413        1.017
  YS02001882           JUNCTION        0.63          0.830        0.000
  YS02001884           JUNCTION        0.65          0.870        0.000
  YS02001887           JUNCTION        0.69          0.950        0.000
  YS02001890           JUNCTION        0.70          0.760        0.000
  YS02001895           JUNCTION        0.62          0.667        0.083
  YS02001898           JUNCTION        0.62          0.690        0.050
  YS02001901           JUNCTION        0.67          0.797        0.073
  YS02001904           JUNCTION        0.66          0.699        0.151
  YS02001907           JUNCTION        0.92          0.950        0.000
  YS02001910           JUNCTION        0.73          1.023        0.077
  YS02001915           JUNCTION        0.64          1.000        0.000
  YS02001918           JUNCTION        0.54          0.810        0.000
  YS02001920           JUNCTION        0.56          1.140        0.000
  YS02001923           JUNCTION        0.20          0.820        0.000
  YS02001926           JUNCTION        0.23          0.900        0.000
  YS02001929           JUNCTION        0.03          0.780        0.000
  YS02006553           JUNCTION        0.94          1.190        0.000
  YS02006556           JUNCTION        0.82          1.350        0.000
  YS02006558           JUNCTION        0.81          1.400        0.000
  YS02006561           JUNCTION        0.50          0.735        0.415
  YS02163301           JUNCTION        1.27          0.981        0.049
  YS02163601           JUNCTION        1.33          1.074        0.006
  YS02164001           JUNCTION        1.25          0.986        0.114
  
  
  *********************
  Node Flooding Summary
  *********************
  
  Flooding refers to all water that overflows a node, whether it ponds or not.
  --------------------------------------------------------------------------
                                                             Total   Maximum
                                 Maximum   Time of Max       Flood    Ponded
                        Hours       Rate    Occurrence      Volume     Depth
  Node                 Flooded       LPS   days hr:min    10^6 ltr    Meters
  --------------------------------------------------------------------------
  WS02006249              1.62    110.94      0  01:42       0.411     0.000
  WS02006252              0.01    245.63      0  00:00       0.000     0.000
  WS02006256              1.95    293.19      0  00:00       0.665     0.000
  YS02001580              0.01    102.46      0  01:33       0.001     0.000
  YS02001583              0.01    159.04      0  01:33       0.000     0.000
  YS02001586              0.68    552.44      0  01:42       0.649     0.000
  YS02001590              0.01      2.52      0  01:33       0.000     0.000
  YS02001600              0.01      7.34      0  01:32       0.000     0.000
  YS02001601              0.93   1519.35      0  01:40       2.048     0.000
  YS02001602              0.84     61.97      0  01:49       0.172     0.000
  YS02001605              0.01      4.25      0  01:33       0.000     0.000
  YS02001610              0.75    874.64      0  01:41       1.122     0.000
  YS02001616              0.01     64.58      0  01:33       0.000     0.000
  YS02001619              0.01     73.51      0  01:33       0.000     0.000
  YS02001622              0.01    148.67      0  01:33       0.000     0.000
  YS02001625              0.72   1427.63      0  01:43       1.797     0.000
  YS02001629              0.17    422.61      0  01:38       0.128     0.000
  YS02001633              0.01      0.29      0  01:36       0.000     0.000
  YS02001644              0.29   1434.54      0  01:39       0.819     0.000
  YS02001647              0.01      9.26      0  01:36       0.000     0.000
  YS02001649              0.01    254.63      0  01:36       0.005     0.000
  YS02001652              0.01     53.26      0  01:36       0.000     0.000
  YS02001655              0.01    511.67      0  01:35       0.001     0.000
  YS02001658              0.01    473.85      0  01:36       0.001     0.000
  YS02001661              0.01    324.99      0  01:36       0.000     0.000
  YS02001664              0.01    200.51      0  01:36       0.000     0.000
  YS02001745              0.01    429.98      0  01:36       0.000     0.000
  YS02001748              0.01    480.82      0  01:36       0.002     0.000
  YS02001751              0.01    286.36      0  01:36       0.001     0.000
  YS02001754              0.01    316.00      0  01:35       0.001     0.000
  YS02001757              0.01     39.43      0  01:36       0.000     0.000
  YS02001759              0.01      5.68      0  01:36       0.000     0.000
  YS02001762              0.01    109.91      0  01:35       0.000     0.000
  YS02001765              0.01     13.93      0  01:35       0.000     0.000
  YS02001767              0.01    195.00      0  01:35       0.000     0.000
  YS02001770              0.03    304.81      0  01:35       0.005     0.000
  YS02001774              0.01    103.27      0  01:35       0.000     0.000
  YS02001779              0.26    810.24      0  01:39       0.428     0.000
  YS02001882              0.01     61.58      0  01:34       0.000     0.000
  YS02001884              0.01      8.72      0  01:34       0.000     0.000
  YS02001887              0.01     33.57      0  01:34       0.000     0.000
  YS02001890              0.22    519.72      0  01:38       0.217     0.000
  YS02001907              0.48   2428.61      0  01:39       2.039     0.000
  YS02001915              0.01      0.53      0  01:36       0.000     0.000
  YS02001918              0.01    267.18      0  01:35       0.004     0.000
  YS02001920              0.01     36.59      0  01:35       0.000     0.000
  YS02001923              0.01    384.24      0  01:35       0.002     0.000
  YS02001926              0.01    839.19      0  01:35       0.004     0.000
  YS02001929              0.01    726.00      0  01:35       0.002     0.000
  YS02006553              0.01      1.97      0  01:35       0.000     0.000
  YS02006556              0.01     13.52      0  01:35       0.000     0.000
  YS02006558              0.01      8.00      0  01:35       0.000     0.000
  
  
  **********************
  Storage Volume Summary
  **********************
  
  ------------------------------------------------------------------------------------------------
                         Average    Avg   Evap  Exfil     Maximum    Max    Time of Max    Maximum
                          Volume   Pcnt   Pcnt   Pcnt      Volume   Pcnt     Occurrence    Outflow
  Storage Unit           1000 m³   Full   Loss   Loss     1000 m³   Full    days hr:min        LPS
  ------------------------------------------------------------------------------------------------
  CC-storage               2.736   42.7    0.0    0.0       5.012   78.2       0  02:20    1783.53
  JK-storage               0.111   38.0    0.0    0.0       0.212   72.9       0  01:56    2300.00
  
  
  ***********************
  Outfall Loading Summary
  ***********************
  
  -----------------------------------------------------------
                         Flow       Avg       Max       Total
                         Freq      Flow      Flow      Volume
  Outfall Node           Pcnt       LPS       LPS    10^6 ltr
  -----------------------------------------------------------
  CC-1                  44.05    683.00    683.00       5.002
  CC-2                  42.26    683.00    683.00       4.819
  JK-1                  19.16   1000.00   1000.00       2.689
  JK-2                   0.24   1000.00   1000.00       0.048
  WSC                   99.93    249.03    559.50       4.764
  -----------------------------------------------------------
  System                41.13   3615.03   3366.23      17.322
  
  
  ********************
  Link Flow Summary
  ********************
  
  -----------------------------------------------------------------------------
                                 Maximum  Time of Max   Maximum    Max/    Max/
                                  |Flow|   Occurrence   |Veloc|    Full    Full
  Link                 Type          LPS  days hr:min     m/sec    Flow   Depth
  -----------------------------------------------------------------------------
  1                    CONDUIT    559.50     0  02:13      2.83    0.19    0.30
  WS02003060WS02003069 CONDUIT    558.18     0  02:11      1.64    0.22    0.34
  WS02003066WSF200     CONDUIT    541.70     0  02:10      2.86    0.09    0.22
  WS02003067WS02003066 CONDUIT    541.63     0  02:10      1.21    0.17    0.42
  WS02003069WS02003072 CONDUIT    558.05     0  02:11      1.37    0.27    0.39
  WS02003072WS02003073 CONDUIT    557.86     0  02:12      1.44    1.20    0.38
  WS02004401WS02004402 CONDUIT    544.12     0  02:42      1.23    0.65    0.89
  WS02004402WS02004403 CONDUIT    544.42     0  02:07      1.24    0.78    0.91
  WS02004403WS02004404 CONDUIT    565.24     0  02:06      1.17    0.41    0.96
  WS02004404WS02004405 CONDUIT    610.99     0  02:46      1.43    5.99    0.98
  WS02004405WS02004406 CONDUIT    550.81     0  02:08      1.39    1.09    0.97
  WS02004406WS02004407 CONDUIT    544.30     0  02:08      1.05    0.24    0.63
  WS02004407WS02004409 CONDUIT    543.39     0  02:08      1.58    0.19    0.48
  WS02004409WS02004410 CONDUIT    542.69     0  02:08      1.05    0.70    0.68
  WS02004410WS02004411 CONDUIT    542.25     0  02:09      1.01    0.74    0.69
  WS02004411WS02004412 CONDUIT    542.03     0  02:09      0.95    0.77    0.70
  WS02004412WS02004413 CONDUIT    541.92     0  02:09      0.87    0.36    0.78
  WS02004413WS02003067 CONDUIT    541.55     0  02:10      1.12    0.23    0.59
  WS02006109WS02006110 CONDUIT    552.12     0  01:43      1.10    1.06    1.00
  WS02006110WS02006113 CONDUIT    564.44     0  01:43      1.36    0.51    0.78
  WS02006111WS02006112 CONDUIT    543.01     0  02:05      1.96    0.26    0.67
  WS02006112WS02006115 CONDUIT    552.53     0  02:08      0.87    0.33    0.88
  WS02006113WS02006111 CONDUIT    559.83     0  02:34      2.46    0.67    0.46
  WS02006115WS02006116 CONDUIT    542.91     0  02:08      1.19    0.70    0.79
  WS02006116WS02004401 CONDUIT    542.01     0  02:07      1.22    0.75    0.87
  WS02006228WS02006109 CONDUIT    549.77     0  01:43      1.09    2.40    1.00
  WS02006229WS02006228 CONDUIT    550.10     0  01:43      1.14    1.82    1.00
  WS02006230WS02006229 CONDUIT    549.67     0  01:43      1.43   12.23    1.00
  WS02006231WS02006230 CONDUIT    555.27     0  01:43      1.54    8.42    1.00
  WS02006232WS02006231 CONDUIT    553.68     0  01:43      1.44    1.16    1.00
  WS02006234WS02006232 CONDUIT    553.56     0  01:43      1.44    1.12    1.00
  WS02006235WS02006234 CONDUIT    554.02     0  01:43      1.44    5.85    1.00
  WS02006238WS02006235 CONDUIT    422.51     0  03:19      1.54    0.94    1.00
  WS02006239WS02006238 CONDUIT    421.29     0  03:19      1.10    1.35    1.00
  WS02006240WS02006239 CONDUIT    421.53     0  03:19      1.24    1.33    1.00
  WS02006242WS02006240 CONDUIT    419.06     0  03:20      1.13    1.66    1.00
  WS02006243WS02006242 CONDUIT    418.82     0  03:20      1.40    0.89    1.00
  WS02006245WS02006243 CONDUIT    418.08     0  03:20      1.45    1.24    1.00
  WS02006247WS02006245 CONDUIT    418.50     0  03:19      1.43    3.32    1.00
  WS02006248WS02006247 CONDUIT    417.86     0  03:19      1.44    0.91    1.00
  WS02006249WS02006248 CONDUIT    418.31     0  03:19      1.36    2.29    1.00
  WS02006251WS02006249 CONDUIT    459.02     0  00:00      1.99    1.32    1.00
  WS02006252WS02006251 CONDUIT    410.93     0  01:42     25.30    1.51    1.00
  WS02006256WS02006235 CONDUIT    288.91     0  00:00      4.23    3.06    1.00
  WSF200WS02003060     CONDUIT    541.95     0  02:10      2.07    0.12    0.28
  YS02001580YS02001583 CONDUIT    162.91     0  01:33      0.88    0.63    1.00
  YS02001583YS02001586 CONDUIT    202.98     0  01:33      0.93    0.31    1.00
  YS02001586YS02001590 CONDUIT    317.96     0  02:09      1.28    0.56    1.00
  YS02001590YS02001593 CONDUIT    318.03     0  01:41      1.12    2.00    1.00
  YS02001593YS02001596 CONDUIT    318.02     0  02:03      1.73    0.50    1.00
  YS02001596YS02001600 CONDUIT    318.06     0  02:03      1.23    0.62    1.00
  YS02001600YS02001601 CONDUIT    317.90     0  01:55      1.12    0.55    1.00
  YS02001601YS02001602 CONDUIT    576.32     0  01:33      2.04    2.08    1.00
  YS02001602YS02001605 CONDUIT    576.06     0  01:33      2.04   12.19    1.00
  YS02001605YS02001607 CONDUIT    575.97     0  01:33      2.04    3.16    1.00
  YS02001607YS02001610 CONDUIT    540.56     0  01:33      0.71    0.51    1.00
  YS02001610YS02001613 CONDUIT    539.03     0  01:42      0.69    0.62    1.00
  YS02001613YS02001616 CONDUIT    539.35     0  01:42      0.69    0.46    1.00
  YS02001616YS02001619 CONDUIT    538.66     0  01:42      0.69    0.94    1.00
  YS02001619YS02001622 CONDUIT   1012.52     0  01:41      1.29    1.49    1.00
  YS02001622YS02001625 CONDUIT   1012.16     0  01:41      1.29    0.54    1.00
  YS02001625YS02001629 CONDUIT    931.77     0  01:33      1.19    0.44    1.00
  YS02001629YS02163301 CONDUIT    897.80     0  01:34      1.14    1.11    1.00
  YS02001633YS02163601 CONDUIT   1432.50     0  01:34      1.82    1.50    1.00
  YS02001641YS02001644 CONDUIT   1430.17     0  01:34      1.82    4.62    1.00
  YS02001644YS02001647 CONDUIT   1944.04     0  01:34      2.48    1.14    1.00
  YS02001647YS02001649 CONDUIT   1943.98     0  01:34      2.48    1.03    1.00
  YS02001649YS02001757 CONDUIT   2202.76     0  01:35      2.80    1.34    1.00
  YS02001652YS02001649 CONDUIT   1089.39     0  01:37      1.39    0.54    1.00
  YS02001655YS02001652 CONDUIT   1089.14     0  01:37      1.55    0.53    1.00
  YS02001658YS02001655 CONDUIT   1089.24     0  01:37      2.05    0.46    1.00
  YS02001661YS02001658 CONDUIT   1089.14     0  01:37      2.46    0.43    1.00
  YS02001664YS02001661 CONDUIT   1089.43     0  01:37      2.56    0.34    1.00
  YS02001745YS02001748 CONDUIT    698.15     0  01:38      2.43    0.27    1.00
  YS02001748YS02001751 CONDUIT    699.12     0  01:38      1.90    0.35    1.00
  YS02001751YS02001754 CONDUIT    699.14     0  01:38      1.59    0.34    1.00
  YS02001754YS02001757 CONDUIT    699.27     0  01:38      0.89    0.28    1.00
  YS02001757CaochengTiaoxuchi CONDUIT   3607.36     0  01:37      4.65    1.56    1.00
  YS02001759YS02001757 CONDUIT   1546.91     0  01:36      1.97    1.10    1.00
  YS02001762YS02001759 CONDUIT    775.70     0  01:36      0.99    0.89    1.00
  YS02001765YS02001762 CONDUIT    776.51     0  01:36      0.99    0.73    1.00
  YS02001767YS02001765 CONDUIT    778.26     0  01:36      0.99    0.98    1.00
  YS02001770YS02001767 CONDUIT    778.79     0  01:36      0.99    3.08    1.00
  YS02001774YS02001770 CONDUIT    811.10     0  01:39      1.03    0.52    1.00
  YS02001779YS02001774 CONDUIT    810.51     0  01:39      1.03    0.41    1.00
  YS02001783YS02001784 CONDUIT   1170.70     0  01:36      2.33    1.61    1.00
  YS02001784YS02001785 CONDUIT   1171.99     0  01:36      2.33    2.73    1.00
  YS02001786YS02001788 CONDUIT   1172.92     0  01:36      2.50    2.26    0.89
  YS02001788YS02001790 CONDUIT   1185.53     0  01:36      2.72    0.87    0.84
  YS02001790YS02001791 CONDUIT   1296.85     0  01:36      3.43    1.41    0.71
  YS02001791YS02001793 CONDUIT   1250.33     0  01:39      6.78    0.54    0.45
  YS02001793JiankangQianchi CONDUIT   1277.32     0  01:39      2.55    0.10    0.65
  YS02001882YS02001884 CONDUIT     99.32     0  01:34      0.17    0.11    1.00
  YS02001884YS02001887 CONDUIT    140.83     0  01:33      0.18    0.19    1.00
  YS02001887YS02001890 CONDUIT   1038.64     0  01:38      1.32    1.78    1.00
  YS02001890YS02001895 CONDUIT    590.86     0  01:34      0.75    0.28    1.00
  YS02001895YS02001898 CONDUIT    596.03     0  01:34      0.76    1.03    1.00
  YS02001898YS02001901 CONDUIT    601.82     0  01:34      0.77    0.39    1.00
  YS02001901YS02001904 CONDUIT    602.19     0  01:34      0.77    0.93    1.00
  YS02001904YS02001907 CONDUIT    601.03     0  01:34      0.77    0.21    1.00
  YS02001907YS02006553 CONDUIT    795.63     0  02:06      0.88    0.94    1.00
  YS02001910YS02001907 CONDUIT   1727.80     0  01:40      2.20    0.97    1.00
  YS02001915YS02001910 CONDUIT   1727.74     0  01:40      2.20    0.86    1.00
  YS02001918YS02001915 CONDUIT    702.24     0  01:34      0.91    0.39    1.00
  YS02001920YS02001918 CONDUIT    681.27     0  01:34      0.87    0.66    1.00
  YS02001923YS02001920 CONDUIT    695.84     0  01:34      0.96    0.31    1.00
  YS02001926YS02001923 CONDUIT    963.24     0  01:35      1.41    1.38    1.00
  YS02001929YS02001926 CONDUIT    593.60     0  01:35      1.23    0.28    1.00
  YS02006553YS02006556 CONDUIT    796.16     0  02:06      1.01    0.68    1.00
  YS02006556YS02006558 CONDUIT    795.70     0  02:06      1.01    0.63    1.00
  YS02006558YS02006561 CONDUIT   1175.15     0  01:34      4.16    2.60    1.00
  YS02006561YS02001783 CONDUIT   1170.62     0  01:36      2.33    0.61    1.00
  YS02163301YS02001633 CONDUIT    897.01     0  01:34      1.14    0.84    1.00
  YS02163601YS02164001 CONDUIT   1432.07     0  01:34      1.82    1.27    1.00
  YS02164001YS02001641 CONDUIT   1430.58     0  01:34      1.82    1.95    1.00
  CC-R1                PUMP       683.00     0  00:00              1.00
  CC-R2                PUMP       683.00     0  00:00              1.00
  CC-S1                PUMP       200.00     0  00:00              1.00
  CC-S2                PUMP       200.00     0  00:00              1.00
  JK-R1                PUMP      1000.00     0  00:00              1.00
  JK-R2                PUMP      1000.00     0  00:00              1.00
  JK-S                 PUMP       300.00     0  00:00              1.00
  
  
  ***************************
  Flow Classification Summary
  ***************************
  
  -------------------------------------------------------------------------------------
                      Adjusted    ---------- Fraction of Time in Flow Class ---------- 
                       /Actual         Up    Down  Sub   Sup   Up    Down  Norm  Inlet 
  Conduit               Length    Dry  Dry   Dry   Crit  Crit  Crit  Crit  Ltd   Ctrl  
  -------------------------------------------------------------------------------------
  1                       1.00   0.00  0.00  0.00  0.00  1.00  0.00  0.00  0.61  0.00
  WS02003060WS02003069    1.00   0.00  0.00  0.00  0.97  0.03  0.00  0.00  0.72  0.00
  WS02003066WSF200        1.00   0.06  0.00  0.00  0.00  0.94  0.00  0.00  0.73  0.00
  WS02003067WS02003066    1.00   0.05  0.01  0.00  0.94  0.00  0.00  0.00  0.00  0.00
  WS02003069WS02003072    1.00   0.00  0.00  0.00  0.99  0.01  0.00  0.00  0.75  0.00
  WS02003072WS02003073    1.00   0.00  0.00  0.00  0.00  0.00  0.00  1.00  0.00  0.00
  WS02004401WS02004402    1.00   0.02  0.00  0.00  0.98  0.00  0.00  0.00  0.00  0.00
  WS02004402WS02004403    1.00   0.02  0.00  0.00  0.98  0.00  0.00  0.00  0.00  0.00
  WS02004403WS02004404    1.00   0.00  0.03  0.00  0.97  0.00  0.00  0.00  0.00  0.00
  WS02004404WS02004405    1.00   0.00  0.00  0.00  1.00  0.00  0.00  0.00  0.01  0.00
  WS02004405WS02004406    1.00   0.00  0.00  0.00  1.00  0.00  0.00  0.00  0.00  0.00
  WS02004406WS02004407    1.00   0.00  0.03  0.00  0.96  0.00  0.00  0.00  0.00  0.00
  WS02004407WS02004409    1.00   0.04  0.00  0.00  0.95  0.01  0.00  0.00  0.95  0.00
  WS02004409WS02004410    1.00   0.04  0.00  0.00  0.96  0.00  0.00  0.00  0.00  0.00
  WS02004410WS02004411    1.00   0.04  0.00  0.00  0.96  0.00  0.00  0.00  0.00  0.00
  WS02004411WS02004412    1.00   0.04  0.00  0.00  0.96  0.00  0.00  0.00  0.00  0.00
  WS02004412WS02004413    1.00   0.04  0.00  0.00  0.96  0.00  0.00  0.00  0.00  0.00
  WS02004413WS02003067    1.00   0.04  0.01  0.00  0.00  0.00  0.95  0.00  0.00  0.00
  WS02006109WS02006110    1.00   0.00  0.01  0.00  0.98  0.00  0.01  0.00  0.00  0.00
  WS02006110WS02006113    1.00   0.01  0.01  0.00  0.98  0.00  0.00  0.00  0.00  0.00
  WS02006111WS02006112    1.00   0.02  0.00  0.00  0.98  0.00  0.00  0.00  0.98  0.00
  WS02006112WS02006115    1.00   0.02  0.00  0.00  0.97  0.00  0.00  0.00  0.00  0.00
  WS02006113WS02006111    1.00   0.02  0.00  0.00  0.00  0.98  0.00  0.00  0.11  0.00
  WS02006115WS02006116    1.00   0.02  0.00  0.00  0.97  0.00  0.00  0.01  0.00  0.00
  WS02006116WS02004401    1.00   0.02  0.00  0.00  0.98  0.00  0.00  0.00  0.00  0.00
  WS02006228WS02006109    1.00   0.00  0.00  0.00  1.00  0.00  0.00  0.00  0.00  0.00
  WS02006229WS02006228    1.00   0.00  0.00  0.00  0.99  0.00  0.00  0.01  0.00  0.00
  WS02006230WS02006229    1.00   0.00  0.00  0.00  0.99  0.00  0.00  0.01  0.00  0.00
  WS02006231WS02006230    1.00   0.00  0.00  0.00  0.25  0.00  0.75  0.00  0.00  0.00
  WS02006232WS02006231    1.00   0.00  0.00  0.00  0.99  0.00  0.01  0.00  0.00  0.00
  WS02006234WS02006232    1.00   0.00  0.00  0.00  1.00  0.00  0.00  0.00  0.38  0.00
  WS02006235WS02006234    1.00   0.00  0.00  0.00  0.56  0.00  0.44  0.00  0.00  0.00
  WS02006238WS02006235    1.00   0.00  0.00  0.00  1.00  0.00  0.00  0.00  0.00  0.00
  WS02006239WS02006238    1.00   0.00  0.00  0.00  1.00  0.00  0.00  0.00  0.53  0.00
  WS02006240WS02006239    1.00   0.00  0.00  0.00  0.42  0.00  0.00  0.58  0.02  0.00
  WS02006242WS02006240    1.00   0.00  0.00  0.00  1.00  0.00  0.00  0.00  0.00  0.00
  WS02006243WS02006242    1.00   0.00  0.00  0.00  0.99  0.00  0.00  0.00  0.68  0.00
  WS02006245WS02006243    1.00   0.00  0.00  0.00  0.48  0.00  0.00  0.52  0.00  0.00
  WS02006247WS02006245    1.00   0.00  0.00  0.00  0.99  0.00  0.00  0.01  0.00  0.00
  WS02006248WS02006247    1.00   0.00  0.00  0.00  0.99  0.00  0.00  0.01  0.18  0.00
  WS02006249WS02006248    1.00   0.00  0.00  0.00  0.31  0.00  0.69  0.00  0.00  0.00
  WS02006251WS02006249    1.00   0.00  0.00  0.00  1.00  0.00  0.00  0.00  0.71  0.00
  WS02006252WS02006251    1.00   0.00  0.73  0.00  0.20  0.00  0.07  0.00  0.00  0.00
  WS02006256WS02006235    1.00   0.00  0.00  0.00  1.00  0.00  0.00  0.00  0.00  0.00
  WSF200WS02003060        1.00   0.00  0.06  0.00  0.50  0.43  0.00  0.00  0.67  0.00
  YS02001580YS02001583    1.00   0.19  0.57  0.00  0.23  0.00  0.00  0.00  0.67  0.00
  YS02001583YS02001586    1.00   0.41  0.30  0.00  0.29  0.00  0.00  0.00  0.67  0.00
  YS02001586YS02001590    1.00   0.13  0.00  0.00  0.44  0.04  0.00  0.39  0.33  0.00
  YS02001590YS02001593    1.00   0.13  0.01  0.00  0.16  0.00  0.71  0.00  0.00  0.00
  YS02001593YS02001596    1.00   0.13  0.00  0.00  0.18  0.01  0.00  0.68  0.02  0.00
  YS02001596YS02001600    1.00   0.14  0.00  0.00  0.23  0.01  0.00  0.63  0.03  0.00
  YS02001600YS02001601    1.00   0.13  0.01  0.00  0.86  0.00  0.00  0.00  0.58  0.00
  YS02001601YS02001602    1.00   0.13  0.01  0.00  0.87  0.00  0.00  0.00  0.00  0.00
  YS02001602YS02001605    1.00   0.13  0.00  0.00  0.86  0.00  0.00  0.00  0.00  0.00
  YS02001605YS02001607    1.00   0.14  0.00  0.00  0.86  0.00  0.00  0.00  0.00  0.00
  YS02001607YS02001610    1.00   0.13  0.01  0.00  0.86  0.00  0.00  0.00  0.01  0.00
  YS02001610YS02001613    1.00   0.13  0.00  0.00  0.87  0.00  0.00  0.00  0.00  0.00
  YS02001613YS02001616    1.00   0.13  0.00  0.00  0.87  0.00  0.00  0.00  0.00  0.00
  YS02001616YS02001619    1.00   0.13  0.00  0.00  0.87  0.00  0.00  0.00  0.00  0.00
  YS02001619YS02001622    1.00   0.13  0.00  0.00  0.87  0.00  0.00  0.00  0.28  0.00
  YS02001622YS02001625    1.00   0.13  0.00  0.00  0.87  0.00  0.00  0.00  0.03  0.00
  YS02001625YS02001629    1.00   0.13  0.04  0.00  0.20  0.00  0.63  0.00  0.00  0.00
  YS02001629YS02163301    1.00   0.15  0.01  0.00  0.84  0.00  0.00  0.00  0.00  0.00
  YS02001633YS02163601    1.00   0.00  0.01  0.00  0.99  0.00  0.00  0.00  0.14  0.00
  YS02001641YS02001644    1.00   0.00  0.01  0.00  0.99  0.00  0.00  0.00  0.00  0.00
  YS02001644YS02001647    1.00   0.00  0.16  0.00  0.84  0.00  0.00  0.00  0.00  0.00
  YS02001647YS02001649    1.00   0.00  0.16  0.00  0.57  0.27  0.00  0.00  0.56  0.00
  YS02001649YS02001757    1.00   0.00  0.00  0.00  0.72  0.28  0.00  0.00  0.44  0.00
  YS02001652YS02001649    1.00   0.00  0.00  0.00  0.97  0.03  0.00  0.00  0.72  0.00
  YS02001655YS02001652    1.00   0.00  0.00  0.00  0.22  0.00  0.00  0.77  0.03  0.00
  YS02001658YS02001655    1.00   0.00  0.14  0.00  0.71  0.15  0.00  0.00  0.64  0.00
  YS02001661YS02001658    1.00   0.14  0.00  0.00  0.54  0.32  0.00  0.00  0.68  0.00
  YS02001664YS02001661    1.00   0.13  0.00  0.00  0.77  0.10  0.00  0.00  0.84  0.00
  YS02001745YS02001748    1.00   0.00  0.00  0.00  0.15  0.01  0.00  0.84  0.06  0.00
  YS02001748YS02001751    1.00   0.00  0.00  0.00  0.87  0.13  0.00  0.00  0.76  0.00
  YS02001751YS02001754    1.00   0.00  0.00  0.00  0.21  0.00  0.00  0.79  0.02  0.00
  YS02001754YS02001757    1.00   0.00  0.00  0.00  1.00  0.00  0.00  0.00  0.78  0.00
  YS02001757CaochengTiaoxuchi    1.00   0.00  0.00  0.00  0.98  0.02  0.00  0.00  0.77  0.00
  YS02001759YS02001757    1.00   0.00  0.00  0.00  0.99  0.01  0.00  0.00  0.60  0.00
  YS02001762YS02001759    1.00   0.00  0.00  0.00  1.00  0.00  0.00  0.00  0.03  0.00
  YS02001765YS02001762    1.00   0.00  0.00  0.00  1.00  0.00  0.00  0.00  0.71  0.00
  YS02001767YS02001765    1.00   0.00  0.00  0.00  1.00  0.00  0.00  0.00  0.00  0.00
  YS02001770YS02001767    1.00   0.00  0.00  0.00  1.00  0.00  0.00  0.00  0.00  0.00
  YS02001774YS02001770    1.00   0.00  0.13  0.00  0.71  0.00  0.15  0.00  0.02  0.00
  YS02001779YS02001774    1.00   0.00  0.00  0.00  1.00  0.00  0.00  0.00  0.75  0.00
  YS02001783YS02001784    1.00   0.00  0.17  0.00  0.83  0.00  0.00  0.00  0.55  0.00
  YS02001784YS02001785    1.00   0.00  0.00  0.00  1.00  0.00  0.00  0.00  0.16  0.00
  YS02001786YS02001788    1.00   0.00  0.00  0.00  0.79  0.21  0.00  0.00  0.00  0.00
  YS02001788YS02001790    1.00   0.00  0.00  0.00  0.21  0.79  0.00  0.00  0.78  0.00
  YS02001790YS02001791    1.00   0.00  0.00  0.00  0.01  0.99  0.00  0.00  0.17  0.00
  YS02001791YS02001793    1.00   0.00  0.00  0.00  0.00  1.00  0.00  0.00  0.01  0.00
  YS02001793JiankangQianchi    1.00   0.00  0.00  0.00  0.95  0.05  0.00  0.00  0.97  0.00
  YS02001882YS02001884    1.00   0.15  0.01  0.00  0.85  0.00  0.00  0.00  0.00  0.00
  YS02001884YS02001887    1.00   0.06  0.05  0.00  0.89  0.00  0.00  0.00  0.00  0.00
  YS02001887YS02001890    1.00   0.00  0.00  0.00  0.97  0.00  0.03  0.00  0.00  0.00
  YS02001890YS02001895    1.00   0.00  0.15  0.00  0.84  0.00  0.00  0.00  0.00  0.00
  YS02001895YS02001898    1.00   0.16  0.00  0.00  0.83  0.00  0.01  0.00  0.00  0.00
  YS02001898YS02001901    1.00   0.16  0.00  0.00  0.84  0.00  0.00  0.00  0.01  0.00
  YS02001901YS02001904    1.00   0.16  0.00  0.00  0.84  0.00  0.00  0.00  0.00  0.00
  YS02001904YS02001907    1.00   0.00  0.16  0.00  0.84  0.00  0.00  0.00  0.00  0.00
  YS02001907YS02006553    1.00   0.00  0.02  0.00  0.98  0.00  0.00  0.00  0.00  0.00
  YS02001910YS02001907    1.00   0.00  0.00  0.00  0.97  0.00  0.00  0.03  0.12  0.00
  YS02001915YS02001910    1.00   0.00  0.00  0.00  0.97  0.03  0.00  0.00  0.13  0.00
  YS02001918YS02001915    1.00   0.00  0.01  0.00  0.98  0.02  0.00  0.00  0.72  0.00
  YS02001920YS02001918    1.00   0.00  0.01  0.00  0.99  0.00  0.00  0.00  0.00  0.00
  YS02001923YS02001920    1.00   0.00  0.00  0.00  1.00  0.00  0.00  0.00  0.90  0.00
  YS02001926YS02001923    1.00   0.00  0.07  0.00  0.08  0.00  0.84  0.00  0.00  0.00
  YS02001929YS02001926    1.00   0.00  0.13  0.00  0.87  0.00  0.00  0.00  0.80  0.00
  YS02006553YS02006556    1.00   0.01  0.00  0.00  0.99  0.00  0.00  0.00  0.03  0.00
  YS02006556YS02006558    1.00   0.00  0.00  0.00  1.00  0.00  0.00  0.00  0.00  0.00
  YS02006558YS02006561    1.00   0.17  0.00  0.00  0.08  0.76  0.00  0.00  0.18  0.00
  YS02006561YS02001783    1.00   0.17  0.00  0.00  0.11  0.72  0.00  0.00  0.66  0.00
  YS02163301YS02001633    1.00   0.00  0.15  0.00  0.85  0.00  0.00  0.00  0.00  0.00
  YS02163601YS02164001    1.00   0.00  0.08  0.00  0.92  0.00  0.00  0.00  0.00  0.00
  YS02164001YS02001641    1.00   0.01  0.07  0.00  0.92  0.00  0.00  0.00  0.05  0.00
  
  
  *************************
  Conduit Surcharge Summary
  *************************
  
  ----------------------------------------------------------------------------
                                                           Hours        Hours 
                         --------- Hours Full --------   Above Full   Capacity
  Conduit                Both Ends  Upstream  Dnstream   Normal Flow   Limited
  ----------------------------------------------------------------------------
  WS02003072WS02003073        0.01      0.01      0.01      1.58         0.01
  WS02004403WS02004404        0.01      0.01      0.12      0.01         0.01
  WS02004404WS02004405        0.01      0.12      0.01      2.41         0.01
  WS02004405WS02004406        0.01      0.01      0.01      1.50         0.01
  WS02006109WS02006110        1.59      1.59      1.93      1.60         0.01
  WS02006110WS02006113        0.01      0.01      1.92      0.01         0.01
  WS02006111WS02006112        0.01      0.01      1.99      0.01         0.01
  WS02006112WS02006115        0.01      0.01      1.54      0.01         0.01
  WS02006228WS02006109        1.90      1.92      1.90      2.10         1.90
  WS02006229WS02006228        1.90      1.91      1.90      2.01         1.90
  WS02006230WS02006229        1.94      1.95      1.94      2.89         1.94
  WS02006231WS02006230        1.59      1.59      1.61      2.67         0.01
  WS02006232WS02006231        1.61      1.61      1.93      1.63         0.01
  WS02006234WS02006232        1.90      1.90      1.93      1.62         1.62
  WS02006235WS02006234        1.67      1.67      1.91      2.54         0.01
  WS02006238WS02006235        1.91      1.91      1.93      0.01         0.01
  WS02006239WS02006238        1.92      1.92      1.92      1.98         1.78
  WS02006240WS02006239        1.90      1.91      1.90      1.98         1.63
  WS02006242WS02006240        1.90      1.90      1.94      2.05         0.01
  WS02006243WS02006242        1.90      1.90      1.92      0.01         0.01
  WS02006245WS02006243        1.90      1.90      1.90      0.41         0.55
  WS02006247WS02006245        1.89      1.90      1.89      2.12         1.89
  WS02006248WS02006247        1.89      1.89      1.90      0.01         0.01
  WS02006249WS02006248        1.89      1.89      1.89      2.11         0.01
  WS02006251WS02006249        1.88      1.88      1.89      2.06         1.88
  WS02006252WS02006251        2.08      2.08      2.09      2.09         0.01
  WS02006256WS02006235        2.60      2.61      3.73      1.96         0.01
  YS02001580YS02001583        0.83      0.83      0.90      0.01         0.01
  YS02001583YS02001586        0.84      0.84      1.02      0.01         0.01
  YS02001586YS02001590        1.03      1.03      1.11      0.01         0.01
  YS02001590YS02001593        1.11      1.11      1.13      1.18         0.01
  YS02001593YS02001596        1.12      1.12      1.23      0.01         0.01
  YS02001596YS02001600        1.28      1.28      1.41      0.01         0.01
  YS02001600YS02001601        1.48      1.48      1.70      0.01         0.01
  YS02001601YS02001602        1.63      1.63      1.73      1.39         0.01
  YS02001602YS02001605        1.59      1.59      1.63      2.37         0.01
  YS02001605YS02001607        1.56      1.59      1.56      1.68         1.56
  YS02001607YS02001610        1.12      1.12      1.15      0.01         0.01
  YS02001610YS02001613        1.11      1.11      1.15      0.01         0.01
  YS02001613YS02001616        1.07      1.07      1.11      0.01         0.01
  YS02001616YS02001619        1.05      1.05      1.07      0.01         0.06
  YS02001619YS02001622        1.05      1.05      1.05      1.06         0.97
  YS02001622YS02001625        1.05      1.05      1.25      0.01         0.01
  YS02001625YS02001629        0.99      0.99      1.25      0.01         0.01
  YS02001629YS02163301        1.25      1.25      1.27      0.02         0.11
  YS02001633YS02163601        1.29      1.29      1.33      0.28         0.28
  YS02001641YS02001644        1.23      1.26      1.23      1.75         1.21
  YS02001644YS02001647        1.01      1.01      1.23      0.03         0.01
  YS02001647YS02001649        1.01      1.01      1.17      0.01         0.01
  YS02001649YS02001757        1.17      1.17      1.26      0.04         0.03
  YS02001652YS02001649        0.97      0.97      1.17      0.01         0.01
  YS02001655YS02001652        0.69      0.69      0.95      0.01         0.01
  YS02001658YS02001655        0.35      0.35      0.69      0.01         0.01
  YS02001661YS02001658        0.11      0.11      0.35      0.01         0.01
  YS02001664YS02001661        0.01      0.01      0.15      0.01         0.01
  YS02001745YS02001748        0.01      0.01      0.26      0.01         0.01
  YS02001748YS02001751        0.31      0.31      0.50      0.01         0.01
  YS02001751YS02001754        0.50      0.50      0.83      0.01         0.01
  YS02001754YS02001757        0.89      0.89      1.26      0.01         0.01
  YS02001757CaochengTiaoxuchi        1.20      1.26      1.69      0.45         0.37
  YS02001759YS02001757        1.16      1.16      1.26      0.08         0.07
  YS02001762YS02001759        1.12      1.12      1.16      0.01         0.02
  YS02001765YS02001762        1.06      1.06      1.12      0.01         0.01
  YS02001767YS02001765        1.02      1.02      1.06      0.01         0.02
  YS02001770YS02001767        1.01      1.01      1.02      0.69         0.68
  YS02001774YS02001770        0.99      0.99      1.09      0.01         0.01
  YS02001779YS02001774        0.80      0.80      1.09      0.01         0.01
  YS02001783YS02001784        0.67      0.70      0.67      0.85         0.67
  YS02001784YS02001785        0.56      0.67      0.56      1.15         0.56
  YS02001786YS02001788        0.01      0.56      0.01      0.98         0.01
  YS02001790YS02001791        0.01      0.01      0.01      0.66         0.01
  YS02001793JiankangQianchi        0.01      0.01      7.59      0.01         0.01
  YS02001882YS02001884        0.63      0.63      0.65      0.01         0.01
  YS02001884YS02001887        0.67      0.67      0.69      0.01         0.01
  YS02001887YS02001890        0.70      0.70      0.71      0.19         0.01
  YS02001890YS02001895        0.62      0.62      0.73      0.01         0.01
  YS02001895YS02001898        0.62      0.62      0.62      0.01         0.01
  YS02001898YS02001901        0.63      0.63      0.67      0.01         0.01
  YS02001901YS02001904        0.66      0.66      0.67      0.01         0.01
  YS02001904YS02001907        0.66      0.66      0.95      0.01         0.01
  YS02001907YS02006553        1.17      1.17      1.26      0.01         0.01
  YS02001910YS02001907        0.73      0.73      0.92      0.01         0.01
  YS02001915YS02001910        0.64      0.64      0.73      0.01         0.01
  YS02001918YS02001915        0.54      0.54      0.64      0.01         0.01
  YS02001920YS02001918        0.54      0.54      0.56      0.01         0.01
  YS02001923YS02001920        0.50      0.50      0.56      0.01         0.01
  YS02001926YS02001923        0.20      0.20      0.23      0.01         0.01
  YS02001929YS02001926        0.03      0.03      0.23      0.01         0.01
  YS02006553YS02006556        0.82      0.82      0.94      0.01         0.01
  YS02006556YS02006558        0.88      0.88      0.98      0.01         0.01
  YS02006558YS02006561        0.58      0.81      0.58      1.09         0.58
  YS02006561YS02001783        0.50      0.50      0.70      0.01         0.01
  YS02163301YS02001633        1.27      1.27      1.31      0.01         0.01
  YS02163601YS02164001        1.25      1.25      1.33      0.04         0.01
  YS02164001YS02001641        1.25      1.25      1.26      0.84         0.80
  
  
  ***************
  Pumping Summary
  ***************
  
  ---------------------------------------------------------------------------------------------------------
                                                  Min       Avg       Max     Total     Power    % Time Off
                        Percent   Number of      Flow      Flow      Flow    Volume     Usage    Pump Curve
  Pump                 Utilized   Start-Ups       LPS       LPS       LPS  10^6 ltr     Kw-hr    Low   High
  ---------------------------------------------------------------------------------------------------------
  CC-R1                   25.69           2      0.00    683.00    683.00     5.001     94.05    0.0   19.4
  CC-R2                   24.75           2      0.00    683.00    683.00     4.818     90.66    0.0   20.2
  CC-S1                   26.98           2      0.00    200.00    200.00     1.538      8.36    0.0    0.0
  CC-S2                   26.35           2      0.00    200.00    200.00     1.502      8.14    0.0    0.0
  JK-R1                    9.43           5      0.00   1000.00   1000.00     2.688     25.68    0.0    0.0
  JK-R2                    0.17           1      0.00   1000.00   1000.00     0.047      0.36    0.0    0.0
  JK-S                    24.70           3      0.00    300.00    300.00     2.112     33.97    0.0    0.0
  

  Analysis begun on:  Thu Jan 16 14:24:50 2025
  Analysis ended on:  Thu Jan 16 14:24:52 2025
  Total elapsed time: 00:00:02