
  EPA STORM WATER MANAGEMENT MODEL - VERSION 5.2 (Build 5.2.4)
  PYSWMM TOOLKIT API - VERSION v1.0 (2023-11-27)
  ------------------------------------------------------------

  WARNING 04: minimum elevation drop used for Conduit WS02004404WS02004405
  WARNING 03: negative offset ignored for Link YS02001904YS02001907
  
  ****************
  Analysis Options
  ****************
  Flow Units ............... LPS
  Process Models:
    Rainfall/Runoff ........ YES
    RDII ................... NO
    Snowmelt ............... NO
    Groundwater ............ NO
    Flow Routing ........... YES
    Ponding Allowed ........ NO
    Water Quality .......... NO
  Infiltration Method ...... HORTON
  Flow Routing Method ...... DYNWAVE
  Surcharge Method ......... EXTRAN
  Starting Date ............ 08/28/2015 08:00:00
  Ending Date .............. 08/28/2015 16:00:00
  Antecedent Dry Days ...... 8.0
  Report Time Step ......... 00:01:00
  Wet Time Step ............ 00:01:00
  Dry Time Step ............ 00:01:00
  Routing Time Step ........ 30.00 sec
  Variable Time Step ....... YES
  Maximum Trials ........... 8
  Number of Threads ........ 4
  Head Tolerance ........... 0.001500 m
  
  
  **************************        Volume         Depth
  Runoff Quantity Continuity     hectare-m            mm
  **************************     ---------       -------
  Total Precipitation ......         2.669        80.469
  Evaporation Loss .........         0.000         0.000
  Infiltration Loss ........         0.102         3.079
  Surface Runoff ...........         2.535        76.411
  Final Storage ............         0.033         0.996
  Continuity Error (%) .....        -0.020
  
  
  **************************        Volume        Volume
  Flow Routing Continuity        hectare-m      10^6 ltr
  **************************     ---------     ---------
  Dry Weather Inflow .......         0.025         0.251
  Wet Weather Inflow .......         2.535        25.348
  Groundwater Inflow .......         0.000         0.000
  RDII Inflow ..............         0.000         0.000
  External Inflow ..........         0.083         0.834
  External Outflow .........         1.876        18.765
  Flooding Loss ............         0.837         8.370
  Evaporation Loss .........         0.000         0.000
  Exfiltration Loss ........         0.000         0.000
  Initial Stored Volume ....         0.243         2.431
  Final Stored Volume ......         0.182         1.822
  Continuity Error (%) .....        -0.326
  
  
  *************************
  Highest Continuity Errors
  *************************
  Node YS02001583 (-9.76%)
  Node YS02001884 (4.90%)
  Node WS02006256 (-1.46%)
  
  
  ***************************
  Time-Step Critical Elements
  ***************************
  Link WS02006252WS02006251 (43.79%)
  Link WS02006238WS02006235 (16.10%)
  Link WS02004404WS02004405 (13.09%)
  Link YS02001791YS02001793 (9.34%)
  Link WS02006235WS02006234 (5.21%)
  
  
  ********************************
  Highest Flow Instability Indexes
  ********************************
  Link WS02006113WS02006111 (46)
  Link WS02006111WS02006112 (24)
  Link WS02006238WS02006235 (18)
  Link WS02006256WS02006235 (18)
  Link WS02006252WS02006251 (17)
  
  
  *********************************
  Most Frequent Nonconverging Nodes
  *********************************
  Node CC-1 (12.53%)
  Node CC-2 (12.53%)
  Node JK-1 (12.53%)
  Node JK-2 (12.53%)
  Node WSC (12.53%)
  
  
  *************************
  Routing Time Step Summary
  *************************
  Minimum Time Step           :     0.01 sec
  Average Time Step           :     2.05 sec
  Maximum Time Step           :     7.04 sec
  % of Time in Steady State   :     0.00
  Average Iterations per Step :     3.18
  % of Steps Not Converging   :    12.53
  Time Step Frequencies       :
     30.000 - 13.228 sec      :     0.00 %
     13.228 -  5.833 sec      :     9.55 %
      5.833 -  2.572 sec      :    18.30 %
      2.572 -  1.134 sec      :    23.86 %
      1.134 -  0.500 sec      :    48.28 %
  
  
  ***************************
  Subcatchment Runoff Summary
  ***************************
  
  ------------------------------------------------------------------------------------------------------------------------------
                            Total      Total      Total      Total     Imperv       Perv      Total       Total     Peak  Runoff
                           Precip      Runon       Evap      Infil     Runoff     Runoff     Runoff      Runoff   Runoff   Coeff
  Subcatchment                 mm         mm         mm         mm         mm         mm         mm    10^6 ltr      LPS
  ------------------------------------------------------------------------------------------------------------------------------
  sub60                     80.47       0.00       0.00       1.87      69.61       7.79      77.40        1.02   566.00   0.962
  sub61                     80.47       0.00       0.00       2.71      65.66      10.98      76.64        1.41   782.16   0.952
  sub62                     80.47       0.00       0.00       1.25      72.75       5.19      77.94        2.14  1102.98   0.969
  sub63                     80.47       0.00       0.00       4.97      56.17      18.37      74.54        1.69   865.12   0.926
  sub64                     80.47       0.00       0.00       2.52      67.19       9.56      76.75        1.84   896.88   0.954
  sub65                     80.47       0.00       0.00       2.18      68.76       8.29      77.04        2.12  1002.26   0.957
  sub66                     80.47       0.00       0.00       6.07      56.06      17.26      73.32        3.42  1307.90   0.911
  sub67                     80.47       0.00       0.00       1.20      72.79       5.24      78.03        1.45   852.11   0.970
  sub68                     80.47       0.00       0.00       2.24      68.02       9.03      77.05        2.12  1129.39   0.957
  sub69                     80.47       0.00       0.00       2.00      68.29      10.07      78.36        2.90  1339.99   0.974
  sub70                     80.47       0.00       0.00       6.56      52.95      20.80      73.75        2.13   739.79   0.917
  sub71                     80.47       0.00       0.00       1.28      72.71       5.16      77.87        2.04   972.88   0.968
  sub72                     80.47       0.00       0.00       1.13      73.43       4.50      77.93        1.07   470.84   0.968
  
  
  ******************
  Node Depth Summary
  ******************
  
  ---------------------------------------------------------------------------------
                                 Average  Maximum  Maximum  Time of Max    Reported
                                   Depth    Depth      HGL   Occurrence   Max Depth
  Node                 Type       Meters   Meters   Meters  days hr:min      Meters
  ---------------------------------------------------------------------------------
  WS02003060           JUNCTION     0.24     0.38     5.32     0  02:07        0.38
  WS02003066           JUNCTION     0.19     0.30     5.85     0  02:06        0.30
  WS02003067           JUNCTION     0.50     0.70     6.02     0  02:06        0.70
  WS02003069           JUNCTION     0.26     0.43     5.01     0  02:07        0.43
  WS02003072           JUNCTION     0.33     0.50     4.87     0  02:08        0.50
  WS02003073           JUNCTION     0.19     0.30     4.36     0  02:08        0.30
  WS02004401           JUNCTION     0.58     0.85     6.85     0  02:05        0.85
  WS02004402           JUNCTION     0.62     0.88     6.84     0  01:59        0.88
  WS02004403           JUNCTION     0.64     0.89     6.82     0  02:00        0.89
  WS02004404           JUNCTION     0.72     0.96     6.81     0  02:00        0.96
  WS02004405           JUNCTION     0.71     0.96     6.81     0  02:00        0.96
  WS02004406           JUNCTION     0.73     0.96     6.79     0  02:00        0.96
  WS02004407           JUNCTION     0.18     0.30     6.61     0  02:00        0.30
  WS02004409           JUNCTION     0.39     0.67     6.44     0  02:04        0.67
  WS02004410           JUNCTION     0.42     0.68     6.40     0  02:05        0.68
  WS02004411           JUNCTION     0.44     0.69     6.37     0  02:05        0.69
  WS02004412           JUNCTION     0.46     0.70     6.34     0  02:04        0.70
  WS02004413           JUNCTION     0.62     0.86     6.33     0  02:06        0.86
  WS02006109           JUNCTION     0.64     1.19     7.80     0  02:11        0.98
  WS02006110           JUNCTION     0.64     1.34     7.92     0  02:11        0.93
  WS02006111           JUNCTION     0.17     0.29     6.99     0  03:14        0.29
  WS02006112           JUNCTION     0.74     1.08     6.97     0  03:12        1.06
  WS02006113           JUNCTION     0.26     0.46     7.35     0  03:14        0.46
  WS02006115           JUNCTION     0.47     0.75     6.89     0  02:05        0.75
  WS02006116           JUNCTION     0.55     0.83     6.87     0  02:05        0.83
  WS02006228           JUNCTION     0.63     1.27     7.92     0  03:12        1.27
  WS02006229           JUNCTION     0.60     1.33     8.03     0  03:12        1.33
  WS02006230           JUNCTION     0.60     1.46     8.21     0  03:12        1.31
  WS02006231           JUNCTION     0.41     1.24     8.36     0  03:12        1.24
  WS02006232           JUNCTION     0.55     1.44     8.48     0  03:12        1.44
  WS02006234           JUNCTION     0.47     1.71     8.86     0  01:45        1.37
  WS02006235           JUNCTION     0.51     2.00     9.16     0  01:45        1.35
  WS02006238           JUNCTION     0.54     2.09     9.23     0  01:45        1.36
  WS02006239           JUNCTION     0.50     2.02     9.23     0  01:45        1.32
  WS02006240           JUNCTION     0.47     1.84     9.13     0  01:45        1.26
  WS02006242           JUNCTION     0.54     1.55     8.82     0  01:45        1.43
  WS02006243           JUNCTION     0.45     1.48     8.90     0  01:42        1.48
  WS02006245           JUNCTION     0.46     1.56     9.04     0  01:42        1.56
  WS02006247           JUNCTION     0.48     1.42     8.92     0  01:42        1.42
  WS02006248           JUNCTION     0.44     1.10     8.69     0  01:45        1.10
  WS02006249           JUNCTION     0.48     1.09     8.69     0  01:42        1.09
  WS02006251           JUNCTION     0.48     1.37     9.04     0  02:55        1.29
  WS02006252           JUNCTION     0.35     1.50     9.74     0  00:00        1.50
  WS02006256           JUNCTION     0.92     2.35     9.28     0  00:00        2.35
  WSF200               JUNCTION     0.17     0.29     5.52     0  02:06        0.29
  YS02001580           JUNCTION     0.11     1.05     9.59     0  01:33        0.77
  YS02001583           JUNCTION     0.15     1.14     9.64     0  01:33        0.82
  YS02001586           JUNCTION     0.23     1.13     9.30     0  01:33        1.13
  YS02001590           JUNCTION     0.33     1.40     9.26     0  01:33        1.39
  YS02001593           JUNCTION     0.26     1.38     9.24     0  01:33        1.29
  YS02001596           JUNCTION     0.35     1.72     9.14     0  01:33        1.65
  YS02001600           JUNCTION     0.42     1.87     9.00     0  01:33        1.87
  YS02001601           JUNCTION     0.62     2.06     8.90     0  01:31        2.06
  YS02001602           JUNCTION     0.53     1.87     8.77     0  01:33        1.87
  YS02001605           JUNCTION     0.49     1.78     8.68     0  01:33        1.78
  YS02001607           JUNCTION     0.48     1.67     8.52     0  01:42        1.67
  YS02001610           JUNCTION     0.53     1.68     8.48     0  01:33        1.68
  YS02001613           JUNCTION     0.49     1.67     8.52     0  01:33        1.66
  YS02001616           JUNCTION     0.42     1.61     8.52     0  01:42        1.61
  YS02001619           JUNCTION     0.39     1.61     8.54     0  01:33        1.61
  YS02001622           JUNCTION     0.38     1.62     8.52     0  01:33        1.57
  YS02001625           JUNCTION     0.65     1.78     8.38     0  01:33        1.78
  YS02001629           JUNCTION     0.51     1.85     8.40     0  01:33        1.85
  YS02001633           JUNCTION     0.59     2.08     8.53     0  01:35        2.02
  YS02001641           JUNCTION     0.57     2.00     8.44     0  01:35        1.95
  YS02001644           JUNCTION     0.56     1.92     8.35     0  01:35        1.92
  YS02001647           JUNCTION     0.35     1.88     8.49     0  01:35        1.79
  YS02001649           JUNCTION     0.40     2.05     8.44     0  01:36        2.05
  YS02001652           JUNCTION     0.28     2.16     8.76     0  01:36        1.82
  YS02001655           JUNCTION     0.22     2.20     9.05     0  01:36        1.56
  YS02001658           JUNCTION     0.16     2.30     9.44     0  01:36        1.31
  YS02001661           JUNCTION     0.17     2.11     9.52     0  01:36        1.08
  YS02001664           JUNCTION     0.06     1.23     9.16     0  01:37        0.51
  YS02001745           JUNCTION     0.08     2.35     9.87     0  01:36        1.00
  YS02001748           JUNCTION     0.15     2.27     9.35     0  01:36        1.33
  YS02001751           JUNCTION     0.19     2.20     9.08     0  01:36        1.46
  YS02001754           JUNCTION     0.26     2.20     8.81     0  01:36        1.70
  YS02001757           JUNCTION     0.42     2.21     8.47     0  01:36        2.04
  YS02001759           JUNCTION     0.36     2.20     8.57     0  01:36        2.05
  YS02001762           JUNCTION     0.35     2.15     8.55     0  01:35        2.03
  YS02001765           JUNCTION     0.33     2.10     8.55     0  01:35        1.99
  YS02001767           JUNCTION     0.33     2.03     8.52     0  01:35        1.96
  YS02001770           JUNCTION     0.34     1.95     8.44     0  01:35        1.95
  YS02001774           JUNCTION     0.41     2.05     8.47     0  01:35        1.99
  YS02001779           JUNCTION     0.24     1.68     8.37     0  01:35        1.68
  YS02001783           JUNCTION     0.26     1.73     7.87     0  01:35        1.24
  YS02001784           JUNCTION     0.27     1.39     7.45     0  01:35        1.12
  YS02001786           JUNCTION     0.23     1.19     7.22     0  01:35        0.88
  YS02001788           JUNCTION     0.16     0.63     6.60     0  01:37        0.63
  YS02001790           JUNCTION     0.19     0.73     6.37     0  01:41        0.72
  YS02001791           JUNCTION     0.12     0.44     5.91     0  01:37        0.43
  YS02001793           JUNCTION     0.06     0.29     5.12     0  01:46        0.28
  YS02001882           JUNCTION     0.33     1.80     8.51     0  01:34        1.65
  YS02001884           JUNCTION     0.43     1.87     8.49     0  01:34        1.75
  YS02001887           JUNCTION     0.50     1.89     8.42     0  01:34        1.82
  YS02001890           JUNCTION     0.53     1.81     8.32     0  01:34        1.81
  YS02001895           JUNCTION     0.30     1.60     8.35     0  01:42        1.60
  YS02001898           JUNCTION     0.31     1.64     8.37     0  01:35        1.59
  YS02001901           JUNCTION     0.42     1.76     8.36     0  01:35        1.73
  YS02001904           JUNCTION     0.40     1.70     8.33     0  01:35        1.64
  YS02001907           JUNCTION     0.73     1.96     8.25     0  01:35        1.96
  YS02001910           JUNCTION     0.53     2.02     8.53     0  01:35        1.95
  YS02001915           JUNCTION     0.33     1.98     8.70     0  01:35        1.90
  YS02001918           JUNCTION     0.19     1.81     8.88     0  01:35        1.81
  YS02001920           JUNCTION     0.27     2.10     9.11     0  01:35        2.03
  YS02001923           JUNCTION     0.15     2.03     9.29     0  01:35        1.93
  YS02001926           JUNCTION     0.18     1.90     9.35     0  01:35        1.90
  YS02001929           JUNCTION     0.10     1.78     9.47     0  01:35        1.66
  YS02006553           JUNCTION     0.73     2.11     8.40     0  01:35        1.98
  YS02006556           JUNCTION     0.70     2.25     8.56     0  01:35        1.96
  YS02006558           JUNCTION     0.74     2.33     8.59     0  01:35        2.00
  YS02006561           JUNCTION     0.16     1.56     8.22     0  01:35        0.91
  YS02163301           JUNCTION     0.53     1.96     8.48     0  01:35        1.91
  YS02163601           JUNCTION     0.62     2.08     8.48     0  01:35        2.02
  YS02164001           JUNCTION     0.56     2.04     8.49     0  01:35        1.94
  CC-1                 OUTFALL      0.00     0.00     0.00     0  00:00        0.00
  CC-2                 OUTFALL      0.00     0.00     0.00     0  00:00        0.00
  JK-1                 OUTFALL      0.00     0.00     0.00     0  00:00        0.00
  JK-2                 OUTFALL      0.00     0.00     0.00     0  00:00        0.00
  WSC                  OUTFALL      0.19     0.30     0.97     0  02:09        0.30
  CC-storage           STORAGE      0.92     1.71     7.21     0  02:22        1.71
  JK-storage           STORAGE      2.04     4.23     5.03     0  02:06        4.23
  
  
  *******************
  Node Inflow Summary
  *******************
  
  -------------------------------------------------------------------------------------------------
                                  Maximum  Maximum                  Lateral       Total        Flow
                                  Lateral    Total  Time of Max      Inflow      Inflow     Balance
                                   Inflow   Inflow   Occurrence      Volume      Volume       Error
  Node                 Type           LPS      LPS  days hr:min    10^6 ltr    10^6 ltr     Percent
  -------------------------------------------------------------------------------------------------
  WS02003060           JUNCTION     16.53   553.01     0  02:06       0.476        5.51       0.042
  WS02003066           JUNCTION      0.00   536.39     0  02:06           0        5.03       0.028
  WS02003067           JUNCTION      0.00   536.37     0  02:06           0        5.04       0.084
  WS02003069           JUNCTION      0.32   553.26     0  02:07     0.00922        5.51       0.074
  WS02003072           JUNCTION      0.00   553.16     0  02:07           0        5.51       0.130
  WS02003073           JUNCTION      1.82   554.95     0  02:08      0.0524        5.55       0.106
  WS02004401           JUNCTION      0.00   540.65     0  03:13           0        5.14       0.203
  WS02004402           JUNCTION      0.00   538.38     0  03:13           0        5.13       0.206
  WS02004403           JUNCTION      0.00   537.53     0  01:59           0        5.12       0.201
  WS02004404           JUNCTION      0.16   537.16     0  02:00     0.00467        5.11       0.167
  WS02004405           JUNCTION      0.04   537.33     0  02:00      0.0011        5.11       0.249
  WS02004406           JUNCTION      0.00   537.74     0  02:00           0        5.09       0.412
  WS02004407           JUNCTION      0.00   537.02     0  02:00           0        5.07       0.026
  WS02004409           JUNCTION      0.00   536.74     0  02:00           0        5.07       0.057
  WS02004410           JUNCTION      0.00   536.57     0  02:03           0        5.07       0.089
  WS02004411           JUNCTION      0.00   536.47     0  02:05           0        5.06       0.113
  WS02004412           JUNCTION      0.00   536.44     0  02:03           0        5.06       0.150
  WS02004413           JUNCTION      0.00   536.44     0  02:05           0        5.05       0.265
  WS02006109           JUNCTION      1.23   569.97     0  03:12      0.0354        5.19       0.165
  WS02006110           JUNCTION      0.00   573.08     0  03:12           0        5.18       0.141
  WS02006111           JUNCTION      0.00   563.04     0  02:49           0        5.17       0.020
  WS02006112           JUNCTION      0.00   544.52     0  03:05           0        5.17       0.351
  WS02006113           JUNCTION      0.00   574.14     0  03:12           0        5.17       0.043
  WS02006115           JUNCTION      0.00   548.15     0  03:06           0        5.15       0.132
  WS02006116           JUNCTION      0.00   540.56     0  02:13           0        5.15       0.117
  WS02006228           JUNCTION      0.00   563.96     0  03:12           0        5.16       0.075
  WS02006229           JUNCTION      0.00   562.65     0  03:12           0        5.16       0.096
  WS02006230           JUNCTION     10.28   592.25     0  02:46       0.296        5.17       0.108
  WS02006231           JUNCTION      0.00   578.83     0  03:11           0        4.87      -0.009
  WS02006232           JUNCTION      0.00   578.13     0  03:11           0        4.88       0.194
  WS02006234           JUNCTION      0.00   573.84     0  03:11           0        4.87      -0.236
  WS02006235           JUNCTION      0.00   577.71     0  01:40           0        4.94       0.268
  WS02006238           JUNCTION      0.00   427.45     0  02:05           0        3.96      -0.279
  WS02006239           JUNCTION      0.00   424.90     0  02:05           0        3.91      -0.221
  WS02006240           JUNCTION      0.00   420.12     0  02:05           0        3.88      -0.042
  WS02006242           JUNCTION      0.00   421.20     0  02:05           0        3.88       0.005
  WS02006243           JUNCTION      0.00   421.92     0  02:05           0        3.87      -0.060
  WS02006245           JUNCTION      0.00   422.79     0  02:05           0        3.89       0.385
  WS02006247           JUNCTION      0.00   422.39     0  02:05           0        3.89       0.012
  WS02006248           JUNCTION      0.00   423.22     0  02:05           0        3.89      -0.038
  WS02006249           JUNCTION      0.00   459.02     0  00:00           0        4.18       0.351
  WS02006251           JUNCTION      0.08   408.83     0  02:55     0.00222        4.19       0.001
  WS02006252           JUNCTION      0.00   400.00     0  00:00           0        4.17      -0.182
  WS02006256           JUNCTION      0.00   300.00     0  00:00           0        1.47      -1.437
  WSF200               JUNCTION      0.00   536.41     0  02:06           0        5.03       0.010
  YS02001580           JUNCTION      0.00   137.60     0  01:33           0     0.00444       2.612
  YS02001583           JUNCTION      0.00   221.08     0  01:33           0      0.0149      -8.894
  YS02001586           JUNCTION    739.79   739.82     0  01:43        2.13        2.14       0.077
  YS02001590           JUNCTION      0.00   317.96     0  01:53           0        1.62      -0.025
  YS02001593           JUNCTION      0.00   318.09     0  01:37           0        1.62       0.012
  YS02001596           JUNCTION      0.00   317.98     0  02:12           0        1.62      -0.012
  YS02001600           JUNCTION      0.00   318.02     0  01:37           0        1.62       0.007
  YS02001601           JUNCTION   1339.99  1657.43     0  01:41         2.9        4.52       0.015
  YS02001602           JUNCTION      0.00   566.13     0  01:33           0        2.66       0.016
  YS02001605           JUNCTION      0.00   565.43     0  01:33           0        2.49       0.020
  YS02001607           JUNCTION      0.00   564.71     0  01:33           0        2.49       0.079
  YS02001610           JUNCTION      0.00   720.95     0  01:42           0        2.79       0.078
  YS02001613           JUNCTION      0.00   555.20     0  01:33           0        2.16       0.083
  YS02001616           JUNCTION      0.00   564.62     0  01:33           0        2.16       0.017
  YS02001619           JUNCTION   1307.90  1307.90     0  01:42        3.42        5.27      -0.002
  YS02001622           JUNCTION      0.00   941.41     0  01:37           0        4.95      -0.012
  YS02001625           JUNCTION      0.00  1339.92     0  01:42           0        5.21       0.172
  YS02001629           JUNCTION      0.00   944.67     0  01:33           0        3.95      -0.007
  YS02001633           JUNCTION   1002.46  1438.49     0  01:35        2.13        5.76       0.056
  YS02001641           JUNCTION      0.00  1439.04     0  01:35           0        5.46       0.048
  YS02001644           JUNCTION    896.92  1935.90     0  01:35        1.84        7.29       0.042
  YS02001647           JUNCTION      0.00  1936.24     0  01:35           0        6.84      -0.000
  YS02001649           JUNCTION      0.00  2207.89     0  01:35           0        8.54       0.004
  YS02001652           JUNCTION      0.00  1023.64     0  01:37           0         1.7      -0.071
  YS02001655           JUNCTION      0.15  1019.99     0  01:37     0.00443         1.7      -0.185
  YS02001658           JUNCTION      0.00  1019.53     0  01:37           0        1.71      -0.134
  YS02001661           JUNCTION      0.00  1017.51     0  01:37           0        1.71       0.040
  YS02001664           JUNCTION    865.12   865.12     0  01:39        1.69        1.69      -0.024
  YS02001745           JUNCTION    566.00   724.01     0  01:36        1.02        1.02       0.118
  YS02001748           JUNCTION      0.04   718.77     0  01:36      0.0013        1.02      -0.389
  YS02001751           JUNCTION      0.01   660.98     0  01:37    0.000317        1.03       0.082
  YS02001754           JUNCTION      0.26   662.11     0  01:37     0.00749        1.05      -0.143
  YS02001757           JUNCTION      0.00  3577.24     0  01:37           0        12.9       0.036
  YS02001759           JUNCTION    782.20  1546.81     0  01:36        1.41        3.35      -0.020
  YS02001762           JUNCTION      0.00   860.24     0  01:36           0        1.94      -0.002
  YS02001765           JUNCTION      0.00   863.79     0  01:36           0        1.94      -0.002
  YS02001767           JUNCTION      0.54   866.30     0  01:36      0.0154        1.94      -0.008
  YS02001770           JUNCTION   1103.13  1103.13     0  01:40        2.14        2.19      -0.020
  YS02001774           JUNCTION      0.00   571.08     0  01:35           0       0.285       0.304
  YS02001779           JUNCTION      0.01   576.92     0  01:35    0.000144       0.238      -0.354
  YS02001783           JUNCTION      0.00  1166.10     0  01:36           0        4.92       0.004
  YS02001784           JUNCTION      1.06  1166.94     0  01:36      0.0305        4.95       0.009
  YS02001786           JUNCTION      0.06  1167.00     0  01:36     0.00162        4.95       0.013
  YS02001788           JUNCTION      0.07  1167.35     0  01:36     0.00204        4.96       0.006
  YS02001790           JUNCTION      0.15  1177.82     0  01:36     0.00446        4.96       0.023
  YS02001791           JUNCTION      0.00  1294.99     0  01:37           0        4.96      -0.028
  YS02001793           JUNCTION      0.00  1246.27     0  01:37           0        4.96       0.003
  YS02001882           JUNCTION      0.00    70.56     0  01:33           0      0.0135       5.067
  YS02001884           JUNCTION      0.00   124.83     0  01:33           0      0.0497       5.153
  YS02001887           JUNCTION    852.56   853.40     0  01:38        1.46         1.5       0.302
  YS02001890           JUNCTION      0.00   853.89     0  01:38           0        1.46       0.352
  YS02001895           JUNCTION      0.00   539.12     0  01:34           0        1.32       0.131
  YS02001898           JUNCTION      0.00   545.30     0  01:34           0        1.32      -0.023
  YS02001901           JUNCTION      0.00   554.67     0  01:34           0        1.32       0.256
  YS02001904           JUNCTION      0.00   558.07     0  01:34           0        1.33       0.215
  YS02001907           JUNCTION      0.00  1971.17     0  01:41           0        4.51       0.382
  YS02001910           JUNCTION      0.00  1454.21     0  01:41           0        3.19       0.229
  YS02001915           JUNCTION    972.89  1454.67     0  01:41        2.04        3.24       0.045
  YS02001918           JUNCTION      0.00   577.08     0  01:35           0        1.24      -0.005
  YS02001920           JUNCTION      2.87   607.55     0  01:35      0.0827        1.21       0.023
  YS02001923           JUNCTION      0.04   720.31     0  01:35     0.00109        1.11      -0.057
  YS02001926           JUNCTION      0.05  1046.79     0  01:35      0.0015        1.09      -0.061
  YS02001929           JUNCTION    470.84   863.41     0  01:35        1.07        1.08      -0.053
  YS02006553           JUNCTION      0.00   791.03     0  02:04           0        2.83       0.420
  YS02006556           JUNCTION      0.00   791.40     0  02:04           0        2.84       0.279
  YS02006558           JUNCTION   1130.27  1189.18     0  01:35        2.15        4.96       0.079
  YS02006561           JUNCTION      0.00  1188.96     0  01:35           0        4.92      -0.005
  YS02163301           JUNCTION      0.00   915.91     0  01:34           0        3.94       0.035
  YS02163601           JUNCTION      0.11  1438.62     0  01:35     0.00317        5.45       0.088
  YS02164001           JUNCTION      0.00  1438.25     0  01:35           0        5.45       0.038
  CC-1                 OUTFALL       0.00   683.00     0  00:00           0        4.68       0.000
  CC-2                 OUTFALL       0.00   683.00     0  00:00           0        4.92       0.000
  JK-1                 OUTFALL       0.00  1000.00     0  00:00           0        2.78       0.000
  JK-2                 OUTFALL       0.00  1000.00     0  00:00           0       0.835       0.000
  WSC                  OUTFALL       0.00   554.94     0  02:09           0        5.55       0.000
  CC-storage           STORAGE       0.00  3580.42     0  01:37           0        15.1      -0.209
  JK-storage           STORAGE       0.00  1249.94     0  02:00           0        5.11      -0.341
  
  
  **********************
  Node Surcharge Summary
  **********************
  
  Surcharging occurs when water rises above the top of the highest conduit.
  ---------------------------------------------------------------------
                                               Max. Height   Min. Depth
                                   Hours       Above Crown    Below Rim
  Node                 Type      Surcharged         Meters       Meters
  ---------------------------------------------------------------------
  WS02006109           JUNCTION        1.99          0.366        1.454
  WS02006110           JUNCTION        1.01          0.430        1.420
  WS02006112           JUNCTION        1.07          0.082        1.598
  WS02006228           JUNCTION        1.99          0.435        1.765
  WS02006229           JUNCTION        2.00          0.533        1.917
  WS02006230           JUNCTION        1.00          0.385        1.185
  WS02006231           JUNCTION        1.12          0.531        0.999
  WS02006232           JUNCTION        2.02          0.745        0.735
  WS02006234           JUNCTION        1.40          0.986        0.254
  WS02006235           JUNCTION        1.97          1.290        0.000
  WS02006238           JUNCTION        2.00          1.370        0.060
  WS02006239           JUNCTION        1.98          1.284        0.006
  WS02006240           JUNCTION        1.99          1.130        0.260
  WS02006242           JUNCTION        2.00          0.820        0.000
  WS02006243           JUNCTION        1.99          0.770        0.000
  WS02006245           JUNCTION        1.98          0.850        0.000
  WS02006247           JUNCTION        1.98          0.714        0.046
  WS02006248           JUNCTION        1.97          0.380        0.000
  WS02006249           JUNCTION        1.97          0.390        0.000
  WS02006251           JUNCTION        1.19          0.342        0.838
  WS02006252           JUNCTION        2.34          1.100        0.000
  WS02006256           JUNCTION        6.50          2.050        0.000
  YS02001580           JUNCTION        0.84          0.450        0.000
  YS02001583           JUNCTION        0.84          0.500        0.000
  YS02001586           JUNCTION        1.04          0.510        0.000
  YS02001590           JUNCTION        1.13          0.750        0.000
  YS02001593           JUNCTION        1.13          0.760        0.080
  YS02001596           JUNCTION        1.27          0.986        0.084
  YS02001600           JUNCTION        1.46          1.190        0.000
  YS02001601           JUNCTION        1.74          1.440        0.000
  YS02001602           JUNCTION        1.67          1.270        0.000
  YS02001605           JUNCTION        1.63          1.180        0.000
  YS02001607           JUNCTION        1.13          0.669        0.011
  YS02001610           JUNCTION        1.16          0.680        0.000
  YS02001613           JUNCTION        1.12          0.675        0.025
  YS02001616           JUNCTION        1.07          0.610        0.000
  YS02001619           JUNCTION        1.05          0.610        0.000
  YS02001622           JUNCTION        1.05          0.620        0.000
  YS02001625           JUNCTION        1.28          0.780        0.000
  YS02001629           JUNCTION        0.99          0.470        0.000
  YS02001633           JUNCTION        1.31          1.056        0.004
  YS02001641           JUNCTION        1.26          1.005        0.095
  YS02001644           JUNCTION        1.23          0.920        0.000
  YS02001647           JUNCTION        0.99          0.877        0.023
  YS02001649           JUNCTION        1.15          1.050        0.000
  YS02001652           JUNCTION        0.90          1.130        0.000
  YS02001655           JUNCTION        0.61          1.200        0.000
  YS02001658           JUNCTION        0.29          1.300        0.000
  YS02001661           JUNCTION        0.02          1.044        0.346
  YS02001664           JUNCTION        0.01          0.233        1.077
  YS02001745           JUNCTION        0.01          1.350        0.000
  YS02001748           JUNCTION        0.19          1.190        0.000
  YS02001751           JUNCTION        0.41          1.200        0.000
  YS02001754           JUNCTION        0.76          1.150        0.000
  YS02001757           JUNCTION        1.25          1.210        0.000
  YS02001759           JUNCTION        1.13          1.203        0.007
  YS02001762           JUNCTION        1.08          1.150        0.000
  YS02001765           JUNCTION        1.03          1.100        0.000
  YS02001767           JUNCTION        0.99          1.030        0.000
  YS02001770           JUNCTION        0.95          0.920        0.000
  YS02001774           JUNCTION        1.06          1.050        0.000
  YS02001779           JUNCTION        0.73          0.680        0.000
  YS02001783           JUNCTION        0.71          0.927        0.673
  YS02001784           JUNCTION        0.68          0.586        0.904
  YS02001786           JUNCTION        0.56          0.394        1.036
  YS02001882           JUNCTION        0.64          0.799        0.031
  YS02001884           JUNCTION        0.65          0.809        0.061
  YS02001887           JUNCTION        0.70          0.836        0.114
  YS02001890           JUNCTION        0.71          0.760        0.000
  YS02001895           JUNCTION        0.63          0.605        0.145
  YS02001898           JUNCTION        0.62          0.605        0.135
  YS02001901           JUNCTION        0.68          0.755        0.115
  YS02001904           JUNCTION        0.67          0.702        0.148
  YS02001907           JUNCTION        0.96          0.950        0.000
  YS02001910           JUNCTION        0.75          1.021        0.079
  YS02001915           JUNCTION        0.64          0.982        0.018
  YS02001918           JUNCTION        0.54          0.810        0.000
  YS02001920           JUNCTION        0.56          1.101        0.039
  YS02001923           JUNCTION        0.14          0.820        0.000
  YS02001926           JUNCTION        0.18          0.900        0.000
  YS02001929           JUNCTION        0.01          0.780        0.000
  YS02006553           JUNCTION        0.98          1.111        0.079
  YS02006556           JUNCTION        0.84          1.207        0.143
  YS02006558           JUNCTION        0.84          1.226        0.174
  YS02006561           JUNCTION        0.50          0.759        0.391
  YS02163301           JUNCTION        1.29          0.960        0.070
  YS02163601           JUNCTION        1.35          1.080        0.000
  YS02164001           JUNCTION        1.26          1.035        0.065
  
  
  *********************
  Node Flooding Summary
  *********************
  
  Flooding refers to all water that overflows a node, whether it ponds or not.
  --------------------------------------------------------------------------
                                                             Total   Maximum
                                 Maximum   Time of Max       Flood    Ponded
                        Hours       Rate    Occurrence      Volume     Depth
  Node                 Flooded       LPS   days hr:min    10^6 ltr    Meters
  --------------------------------------------------------------------------
  WS02006235              0.01     12.32      0  01:45       0.000     0.000
  WS02006242              0.01     26.32      0  01:45       0.000     0.000
  WS02006243              0.01      1.05      0  01:42       0.000     0.000
  WS02006245              0.01      2.69      0  01:42       0.000     0.000
  WS02006248              0.01     17.02      0  01:45       0.000     0.000
  WS02006249              1.17     95.56      0  01:42       0.285     0.000
  WS02006252              0.01    245.63      0  00:00       0.000     0.000
  WS02006256              1.36    293.19      0  00:00       0.495     0.000
  YS02001580              0.01     73.53      0  01:33       0.000     0.000
  YS02001583              0.01    124.69      0  01:33       0.000     0.000
  YS02001586              0.67    422.33      0  01:43       0.512     0.000
  YS02001590              0.01      2.74      0  01:33       0.000     0.000
  YS02001600              0.01      5.92      0  01:33       0.000     0.000
  YS02001601              0.95   1259.61      0  01:41       1.863     0.000
  YS02001602              0.82     61.95      0  01:38       0.167     0.000
  YS02001605              0.01      3.13      0  01:33       0.000     0.000
  YS02001610              0.72    720.69      0  01:42       0.945     0.000
  YS02001616              0.01      1.05      0  01:42       0.000     0.000
  YS02001619              0.01     90.86      0  01:33       0.000     0.000
  YS02001622              0.01    143.66      0  01:33       0.000     0.000
  YS02001625              0.68   1339.90      0  01:42       1.554     0.000
  YS02001629              0.13    300.82      0  01:38       0.070     0.000
  YS02001644              0.24    919.30      0  01:38       0.444     0.000
  YS02001649              0.01    195.96      0  01:36       0.001     0.000
  YS02001652              0.01     71.77      0  01:36       0.000     0.000
  YS02001655              0.01    386.29      0  01:36       0.000     0.000
  YS02001658              0.01    267.68      0  01:36       0.000     0.000
  YS02001745              0.01    237.03      0  01:36       0.000     0.000
  YS02001748              0.01    348.05      0  01:36       0.001     0.000
  YS02001751              0.01     52.86      0  01:36       0.000     0.000
  YS02001754              0.01     66.36      0  01:36       0.000     0.000
  YS02001757              0.01     57.19      0  01:36       0.000     0.000
  YS02001762              0.01     23.96      0  01:35       0.000     0.000
  YS02001765              0.01     57.89      0  01:35       0.000     0.000
  YS02001767              0.01    137.68      0  01:35       0.000     0.000
  YS02001770              0.01    335.05      0  01:35       0.002     0.000
  YS02001774              0.01     36.93      0  01:35       0.000     0.000
  YS02001779              0.21    546.25      0  01:35       0.217     0.000
  YS02001890              0.20    337.23      0  01:38       0.133     0.000
  YS02001907              0.47   1920.79      0  01:39       1.670     0.000
  YS02001918              0.01    187.61      0  01:36       0.002     0.000
  YS02001923              0.01    211.73      0  01:35       0.001     0.000
  YS02001926              0.01    874.17      0  01:35       0.004     0.000
  YS02001929              0.01    694.38      0  01:35       0.002     0.000
  YS02163601              0.01      9.00      0  01:35       0.000     0.000
  
  
  **********************
  Storage Volume Summary
  **********************
  
  ------------------------------------------------------------------------------------------------
                         Average    Avg   Evap  Exfil     Maximum    Max    Time of Max    Maximum
                          Volume   Pcnt   Pcnt   Pcnt      Volume   Pcnt     Occurrence    Outflow
  Storage Unit           1000 m³   Full   Loss   Loss     1000 m³   Full    days hr:min        LPS
  ------------------------------------------------------------------------------------------------
  CC-storage               2.563   40.0    0.0    0.0       4.773   74.5       0  02:22    1783.53
  JK-storage               0.102   35.1    0.0    0.0       0.213   72.9       0  02:06    2300.00
  
  
  ***********************
  Outfall Loading Summary
  ***********************
  
  -----------------------------------------------------------
                         Flow       Avg       Max       Total
                         Freq      Flow      Flow      Volume
  Outfall Node           Pcnt       LPS       LPS    10^6 ltr
  -----------------------------------------------------------
  CC-1                  28.65    683.00    683.00       4.681
  CC-2                  31.01    683.00    683.00       4.917
  JK-1                  12.48   1000.00   1000.00       2.784
  JK-2                   3.70   1000.00   1000.00       0.835
  WSC                   99.96    258.41    554.94       5.548
  -----------------------------------------------------------
  System                35.16   3624.41   3919.24      18.765
  
  
  ********************
  Link Flow Summary
  ********************
  
  -----------------------------------------------------------------------------
                                 Maximum  Time of Max   Maximum    Max/    Max/
                                  |Flow|   Occurrence   |Veloc|    Full    Full
  Link                 Type          LPS  days hr:min     m/sec    Flow   Depth
  -----------------------------------------------------------------------------
  1                    CONDUIT    554.94     0  02:09      2.83    0.19    0.30
  WS02003060WS02003069 CONDUIT    552.94     0  02:07      1.64    0.22    0.34
  WS02003066WSF200     CONDUIT    536.41     0  02:06      2.85    0.09    0.22
  WS02003067WS02003066 CONDUIT    536.39     0  02:06      1.21    0.17    0.42
  WS02003069WS02003072 CONDUIT    553.16     0  02:07      1.37    0.27    0.39
  WS02003072WS02003073 CONDUIT    553.13     0  02:08      1.44    1.19    0.37
  WS02004401WS02004402 CONDUIT    538.38     0  03:13      0.98    0.65    0.86
  WS02004402WS02004403 CONDUIT    537.53     0  01:59      0.97    0.77    0.88
  WS02004403WS02004404 CONDUIT    536.99     0  02:00      0.92    0.39    0.93
  WS02004404WS02004405 CONDUIT    537.29     0  02:00      1.08    5.26    0.96
  WS02004405WS02004406 CONDUIT    537.74     0  02:00      0.99    1.06    0.96
  WS02004406WS02004407 CONDUIT    537.02     0  02:00      1.04    0.24    0.63
  WS02004407WS02004409 CONDUIT    536.74     0  02:00      1.51    0.19    0.48
  WS02004409WS02004410 CONDUIT    536.57     0  02:03      0.98    0.69    0.67
  WS02004410WS02004411 CONDUIT    536.47     0  02:05      0.94    0.73    0.69
  WS02004411WS02004412 CONDUIT    536.44     0  02:03      0.92    0.76    0.69
  WS02004412WS02004413 CONDUIT    536.44     0  02:05      0.82    0.36    0.78
  WS02004413WS02003067 CONDUIT    536.37     0  02:06      1.11    0.23    0.59
  WS02006109WS02006110 CONDUIT    573.08     0  03:12      1.14    1.10    1.00
  WS02006110WS02006113 CONDUIT    574.14     0  03:12      1.38    0.52    0.79
  WS02006111WS02006112 CONDUIT    544.52     0  03:05      1.81    0.26    0.67
  WS02006112WS02006115 CONDUIT    548.15     0  03:06      0.81    0.32    0.87
  WS02006113WS02006111 CONDUIT    563.04     0  02:49      2.47    0.67    0.47
  WS02006115WS02006116 CONDUIT    540.56     0  02:13      0.99    0.69    0.76
  WS02006116WS02004401 CONDUIT    540.65     0  03:13      0.98    0.75    0.84
  WS02006228WS02006109 CONDUIT    568.74     0  03:12      1.13    2.48    1.00
  WS02006229WS02006228 CONDUIT    563.96     0  03:12      1.14    1.87    1.00
  WS02006230WS02006229 CONDUIT    562.65     0  03:12      1.46   12.52    1.00
  WS02006231WS02006230 CONDUIT    581.97     0  02:46      1.60    8.83    1.00
  WS02006232WS02006231 CONDUIT    578.83     0  03:11      1.50    1.21    1.00
  WS02006234WS02006232 CONDUIT    578.13     0  03:11      1.50    1.17    1.00
  WS02006235WS02006234 CONDUIT    573.84     0  03:11      1.49    6.05    1.00
  WS02006238WS02006235 CONDUIT    427.46     0  02:05      1.45    0.95    1.00
  WS02006239WS02006238 CONDUIT    427.45     0  02:05      1.11    1.37    1.00
  WS02006240WS02006239 CONDUIT    424.90     0  02:05      1.24    1.34    1.00
  WS02006242WS02006240 CONDUIT    420.12     0  02:05      1.13    1.67    1.00
  WS02006243WS02006242 CONDUIT    421.20     0  02:05      1.40    0.90    1.00
  WS02006245WS02006243 CONDUIT    421.92     0  02:05      1.45    1.25    1.00
  WS02006247WS02006245 CONDUIT    422.79     0  02:05      1.43    3.35    1.00
  WS02006248WS02006247 CONDUIT    422.39     0  02:05      1.44    0.92    1.00
  WS02006249WS02006248 CONDUIT    423.22     0  02:05      1.36    2.32    1.00
  WS02006251WS02006249 CONDUIT    459.02     0  00:00      1.99    1.32    1.00
  WS02006252WS02006251 CONDUIT    408.75     0  02:55     24.61    1.50    1.00
  WS02006256WS02006235 CONDUIT    288.91     0  00:00      4.23    3.06    1.00
  WSF200WS02003060     CONDUIT    536.48     0  02:06      2.06    0.12    0.28
  YS02001580YS02001583 CONDUIT    137.60     0  01:33      0.81    0.53    1.00
  YS02001583YS02001586 CONDUIT    190.23     0  01:33      0.82    0.29    1.00
  YS02001586YS02001590 CONDUIT    317.96     0  01:53      1.27    0.56    1.00
  YS02001590YS02001593 CONDUIT    318.09     0  01:37      1.13    2.00    1.00
  YS02001593YS02001596 CONDUIT    317.98     0  02:12      1.73    0.50    1.00
  YS02001596YS02001600 CONDUIT    318.02     0  01:37      1.23    0.62    1.00
  YS02001600YS02001601 CONDUIT    318.03     0  02:07      1.12    0.55    1.00
  YS02001601YS02001602 CONDUIT    566.13     0  01:33      2.00    2.04    1.00
  YS02001602YS02001605 CONDUIT    565.43     0  01:33      2.00   11.97    1.00
  YS02001605YS02001607 CONDUIT    564.71     0  01:33      2.00    3.10    1.00
  YS02001607YS02001610 CONDUIT    547.69     0  01:33      0.70    0.52    1.00
  YS02001610YS02001613 CONDUIT    555.20     0  01:33      0.71    0.64    1.00
  YS02001613YS02001616 CONDUIT    564.62     0  01:33      0.72    0.48    1.00
  YS02001616YS02001619 CONDUIT    501.85     0  01:33      0.69    0.87    1.00
  YS02001619YS02001622 CONDUIT    941.41     0  01:37      1.26    1.39    1.00
  YS02001622YS02001625 CONDUIT    941.76     0  01:37      1.20    0.50    1.00
  YS02001625YS02001629 CONDUIT    944.67     0  01:33      1.21    0.45    1.00
  YS02001629YS02163301 CONDUIT    915.91     0  01:34      1.17    1.13    1.00
  YS02001633YS02163601 CONDUIT   1438.51     0  01:35      1.83    1.51    1.00
  YS02001641YS02001644 CONDUIT   1439.69     0  01:35      1.83    4.65    1.00
  YS02001644YS02001647 CONDUIT   1936.24     0  01:35      2.47    1.14    1.00
  YS02001647YS02001649 CONDUIT   1916.16     0  01:35      2.44    1.01    1.00
  YS02001649YS02001757 CONDUIT   2203.01     0  01:35      2.80    1.34    1.00
  YS02001652YS02001649 CONDUIT   1023.55     0  01:37      1.30    0.51    1.00
  YS02001655YS02001652 CONDUIT   1023.64     0  01:37      1.51    0.50    1.00
  YS02001658YS02001655 CONDUIT   1019.84     0  01:37      2.02    0.43    1.00
  YS02001661YS02001658 CONDUIT   1019.53     0  01:37      2.44    0.40    1.00
  YS02001664YS02001661 CONDUIT   1017.51     0  01:37      2.52    0.32    1.00
  YS02001745YS02001748 CONDUIT    692.18     0  01:36      2.39    0.27    1.00
  YS02001748YS02001751 CONDUIT    660.97     0  01:37      1.85    0.33    1.00
  YS02001751YS02001754 CONDUIT    661.85     0  01:37      1.56    0.32    1.00
  YS02001754YS02001757 CONDUIT    659.88     0  01:37      0.84    0.27    1.00
  YS02001757CaochengTiaoxuchi CONDUIT   3580.42     0  01:37      4.71    1.55    1.00
  YS02001759YS02001757 CONDUIT   1546.19     0  01:36      1.97    1.10    1.00
  YS02001762YS02001759 CONDUIT    861.69     0  01:36      1.10    0.99    1.00
  YS02001765YS02001762 CONDUIT    860.24     0  01:36      1.10    0.81    1.00
  YS02001767YS02001765 CONDUIT    863.79     0  01:36      1.10    1.09    1.00
  YS02001770YS02001767 CONDUIT    865.76     0  01:36      1.10    3.43    1.00
  YS02001774YS02001770 CONDUIT    571.08     0  01:35      0.73    0.36    1.00
  YS02001779YS02001774 CONDUIT    576.92     0  01:35      0.74    0.29    1.00
  YS02001783YS02001784 CONDUIT   1165.88     0  01:36      2.32    1.61    1.00
  YS02001784YS02001785 CONDUIT   1166.94     0  01:36      2.32    2.72    1.00
  YS02001786YS02001788 CONDUIT   1167.28     0  01:36      2.49    2.25    0.89
  YS02001788YS02001790 CONDUIT   1177.67     0  01:36      2.72    0.87    0.84
  YS02001790YS02001791 CONDUIT   1294.99     0  01:37      3.44    1.41    0.71
  YS02001791YS02001793 CONDUIT   1246.27     0  01:37      6.75    0.54    0.44
  YS02001793JiankangQianchi CONDUIT   1249.94     0  02:00      2.50    0.10    0.65
  YS02001882YS02001884 CONDUIT     70.56     0  01:33      0.18    0.08    1.00
  YS02001884YS02001887 CONDUIT    124.83     0  01:33      0.16    0.17    1.00
  YS02001887YS02001890 CONDUIT    853.89     0  01:38      1.09    1.46    1.00
  YS02001890YS02001895 CONDUIT    539.12     0  01:34      0.69    0.25    1.00
  YS02001895YS02001898 CONDUIT    545.30     0  01:34      0.69    0.95    1.00
  YS02001898YS02001901 CONDUIT    554.67     0  01:34      0.71    0.36    1.00
  YS02001901YS02001904 CONDUIT    558.07     0  01:34      0.71    0.87    1.00
  YS02001904YS02001907 CONDUIT    564.05     0  01:34      0.72    0.20    1.00
  YS02001907YS02006553 CONDUIT    791.03     0  02:04      0.88    0.93    1.00
  YS02001910YS02001907 CONDUIT   1454.40     0  01:41      1.85    0.82    1.00
  YS02001915YS02001910 CONDUIT   1454.21     0  01:41      1.85    0.72    1.00
  YS02001918YS02001915 CONDUIT    577.08     0  01:35      0.76    0.32    1.00
  YS02001920YS02001918 CONDUIT    604.68     0  01:35      0.77    0.58    1.00
  YS02001923YS02001920 CONDUIT    565.37     0  01:35      0.75    0.25    1.00
  YS02001926YS02001923 CONDUIT    819.54     0  01:35      1.27    1.17    1.00
  YS02001929YS02001926 CONDUIT    582.76     0  01:35      1.21    0.28    1.00
  YS02006553YS02006556 CONDUIT    791.40     0  02:04      1.01    0.68    1.00
  YS02006556YS02006558 CONDUIT    791.95     0  02:04      1.01    0.63    1.00
  YS02006558YS02006561 CONDUIT   1188.96     0  01:35      4.21    2.63    1.00
  YS02006561YS02001783 CONDUIT   1166.10     0  01:36      2.32    0.60    1.00
  YS02163301YS02001633 CONDUIT    916.73     0  01:34      1.17    0.86    1.00
  YS02163601YS02164001 CONDUIT   1438.25     0  01:35      1.83    1.27    1.00
  YS02164001YS02001641 CONDUIT   1439.04     0  01:35      1.83    1.96    1.00
  CC-R1                PUMP       683.00     0  00:00              1.00
  CC-R2                PUMP       683.00     0  00:00              1.00
  CC-S1                PUMP       200.00     0  00:00              1.00
  CC-S2                PUMP       200.00     0  00:00              1.00
  JK-R1                PUMP      1000.00     0  00:00              1.00
  JK-R2                PUMP      1000.00     0  00:00              1.00
  JK-S                 PUMP       300.00     0  00:00              1.00
  
  
  ***************************
  Flow Classification Summary
  ***************************
  
  -------------------------------------------------------------------------------------
                      Adjusted    ---------- Fraction of Time in Flow Class ---------- 
                       /Actual         Up    Down  Sub   Sup   Up    Down  Norm  Inlet 
  Conduit               Length    Dry  Dry   Dry   Crit  Crit  Crit  Crit  Ltd   Ctrl  
  -------------------------------------------------------------------------------------
  1                       1.00   0.00  0.00  0.00  0.00  1.00  0.00  0.00  0.33  0.00
  WS02003060WS02003069    1.00   0.00  0.00  0.00  0.97  0.03  0.00  0.00  0.71  0.00
  WS02003066WSF200        1.00   0.13  0.00  0.00  0.00  0.87  0.00  0.00  0.73  0.00
  WS02003067WS02003066    1.00   0.10  0.02  0.00  0.88  0.00  0.00  0.00  0.00  0.00
  WS02003069WS02003072    1.00   0.00  0.00  0.00  0.99  0.01  0.00  0.00  0.73  0.00
  WS02003072WS02003073    1.00   0.00  0.00  0.00  0.00  0.00  0.00  1.00  0.00  0.00
  WS02004401WS02004402    1.00   0.02  0.00  0.00  0.98  0.00  0.00  0.00  0.00  0.00
  WS02004402WS02004403    1.00   0.02  0.00  0.00  0.97  0.00  0.00  0.00  0.00  0.00
  WS02004403WS02004404    1.00   0.00  0.03  0.00  0.97  0.00  0.00  0.00  0.00  0.00
  WS02004404WS02004405    1.00   0.00  0.00  0.00  1.00  0.00  0.00  0.00  0.00  0.00
  WS02004405WS02004406    1.00   0.00  0.00  0.00  1.00  0.00  0.00  0.00  0.00  0.00
  WS02004406WS02004407    1.00   0.00  0.05  0.00  0.95  0.00  0.00  0.00  0.00  0.00
  WS02004407WS02004409    1.00   0.05  0.00  0.00  0.94  0.01  0.00  0.00  0.94  0.00
  WS02004409WS02004410    1.00   0.05  0.00  0.00  0.95  0.00  0.00  0.00  0.03  0.00
  WS02004410WS02004411    1.00   0.05  0.00  0.00  0.95  0.00  0.00  0.00  0.01  0.00
  WS02004411WS02004412    1.00   0.05  0.00  0.00  0.95  0.00  0.00  0.00  0.00  0.00
  WS02004412WS02004413    1.00   0.05  0.00  0.00  0.94  0.00  0.00  0.00  0.01  0.00
  WS02004413WS02003067    1.00   0.06  0.04  0.00  0.00  0.00  0.90  0.00  0.00  0.00
  WS02006109WS02006110    1.00   0.00  0.01  0.00  0.98  0.00  0.01  0.00  0.00  0.00
  WS02006110WS02006113    1.00   0.01  0.01  0.00  0.98  0.00  0.00  0.00  0.00  0.00
  WS02006111WS02006112    1.00   0.02  0.00  0.00  0.98  0.00  0.00  0.00  0.98  0.00
  WS02006112WS02006115    1.00   0.02  0.00  0.00  0.97  0.00  0.00  0.00  0.00  0.00
  WS02006113WS02006111    1.00   0.02  0.00  0.00  0.00  0.98  0.00  0.00  0.14  0.00
  WS02006115WS02006116    1.00   0.02  0.00  0.00  0.97  0.00  0.00  0.01  0.00  0.00
  WS02006116WS02004401    1.00   0.02  0.00  0.00  0.98  0.00  0.00  0.00  0.00  0.00
  WS02006228WS02006109    1.00   0.00  0.00  0.00  1.00  0.00  0.00  0.00  0.00  0.00
  WS02006229WS02006228    1.00   0.00  0.00  0.00  0.99  0.00  0.00  0.01  0.00  0.00
  WS02006230WS02006229    1.00   0.00  0.00  0.00  0.99  0.00  0.00  0.01  0.02  0.00
  WS02006231WS02006230    1.00   0.00  0.00  0.00  0.26  0.00  0.74  0.00  0.00  0.00
  WS02006232WS02006231    1.00   0.00  0.00  0.00  0.99  0.00  0.01  0.00  0.00  0.00
  WS02006234WS02006232    1.00   0.00  0.00  0.00  1.00  0.00  0.00  0.00  0.06  0.00
  WS02006235WS02006234    1.00   0.00  0.00  0.00  0.89  0.00  0.11  0.00  0.00  0.00
  WS02006238WS02006235    1.00   0.00  0.00  0.00  1.00  0.00  0.00  0.00  0.00  0.00
  WS02006239WS02006238    1.00   0.00  0.00  0.00  1.00  0.00  0.00  0.00  0.19  0.00
  WS02006240WS02006239    1.00   0.00  0.00  0.00  0.70  0.00  0.00  0.30  0.04  0.00
  WS02006242WS02006240    1.00   0.00  0.00  0.00  0.99  0.00  0.01  0.00  0.00  0.00
  WS02006243WS02006242    1.00   0.00  0.00  0.00  0.99  0.00  0.00  0.01  0.51  0.00
  WS02006245WS02006243    1.00   0.00  0.00  0.00  0.78  0.00  0.00  0.22  0.00  0.00
  WS02006247WS02006245    1.00   0.00  0.00  0.00  0.98  0.00  0.00  0.02  0.00  0.00
  WS02006248WS02006247    1.00   0.00  0.00  0.00  0.99  0.00  0.00  0.01  0.39  0.00
  WS02006249WS02006248    1.00   0.00  0.00  0.00  0.51  0.00  0.49  0.00  0.00  0.00
  WS02006251WS02006249    1.00   0.00  0.00  0.00  0.99  0.01  0.00  0.00  0.50  0.00
  WS02006252WS02006251    1.00   0.00  0.51  0.00  0.15  0.00  0.34  0.00  0.00  0.00
  WS02006256WS02006235    1.00   0.00  0.00  0.00  0.98  0.02  0.00  0.00  0.00  0.00
  WSF200WS02003060        1.00   0.00  0.13  0.00  0.33  0.55  0.00  0.00  0.49  0.00
  YS02001580YS02001583    1.00   0.19  0.58  0.00  0.23  0.00  0.00  0.00  0.67  0.00
  YS02001583YS02001586    1.00   0.41  0.30  0.00  0.29  0.00  0.00  0.00  0.67  0.00
  YS02001586YS02001590    1.00   0.13  0.00  0.00  0.44  0.04  0.00  0.39  0.33  0.00
  YS02001590YS02001593    1.00   0.13  0.01  0.00  0.16  0.00  0.71  0.00  0.00  0.00
  YS02001593YS02001596    1.00   0.13  0.00  0.00  0.18  0.01  0.00  0.67  0.03  0.00
  YS02001596YS02001600    1.00   0.13  0.00  0.00  0.23  0.01  0.00  0.62  0.03  0.00
  YS02001600YS02001601    1.00   0.13  0.01  0.00  0.86  0.00  0.00  0.00  0.58  0.00
  YS02001601YS02001602    1.00   0.13  0.01  0.00  0.87  0.00  0.00  0.00  0.00  0.00
  YS02001602YS02001605    1.00   0.13  0.00  0.00  0.87  0.00  0.00  0.00  0.00  0.00
  YS02001605YS02001607    1.00   0.13  0.00  0.00  0.87  0.00  0.00  0.00  0.00  0.00
  YS02001607YS02001610    1.00   0.13  0.01  0.00  0.86  0.00  0.00  0.00  0.01  0.00
  YS02001610YS02001613    1.00   0.13  0.00  0.00  0.87  0.00  0.00  0.00  0.00  0.00
  YS02001613YS02001616    1.00   0.13  0.00  0.00  0.87  0.00  0.00  0.00  0.00  0.00
  YS02001616YS02001619    1.00   0.13  0.00  0.00  0.87  0.00  0.00  0.00  0.00  0.00
  YS02001619YS02001622    1.00   0.13  0.00  0.00  0.87  0.00  0.00  0.00  0.28  0.00
  YS02001622YS02001625    1.00   0.13  0.00  0.00  0.87  0.00  0.00  0.00  0.03  0.00
  YS02001625YS02001629    1.00   0.13  0.04  0.00  0.20  0.00  0.63  0.00  0.00  0.00
  YS02001629YS02163301    1.00   0.14  0.01  0.00  0.85  0.00  0.00  0.00  0.00  0.00
  YS02001633YS02163601    1.00   0.00  0.01  0.00  0.99  0.00  0.00  0.00  0.14  0.00
  YS02001641YS02001644    1.00   0.00  0.01  0.00  0.99  0.00  0.00  0.00  0.00  0.00
  YS02001644YS02001647    1.00   0.00  0.16  0.00  0.84  0.00  0.00  0.00  0.00  0.00
  YS02001647YS02001649    1.00   0.00  0.16  0.00  0.59  0.25  0.00  0.00  0.55  0.00
  YS02001649YS02001757    1.00   0.00  0.00  0.00  0.83  0.17  0.00  0.00  0.36  0.00
  YS02001652YS02001649    1.00   0.00  0.00  0.00  0.97  0.03  0.00  0.00  0.71  0.00
  YS02001655YS02001652    1.00   0.00  0.00  0.00  0.23  0.01  0.00  0.77  0.04  0.00
  YS02001658YS02001655    1.00   0.00  0.14  0.00  0.71  0.16  0.00  0.00  0.65  0.00
  YS02001661YS02001658    1.00   0.14  0.00  0.00  0.54  0.32  0.00  0.00  0.70  0.00
  YS02001664YS02001661    1.00   0.13  0.00  0.00  0.76  0.12  0.00  0.00  0.85  0.00
  YS02001745YS02001748    1.00   0.00  0.00  0.00  0.15  0.01  0.00  0.85  0.06  0.00
  YS02001748YS02001751    1.00   0.00  0.00  0.00  0.87  0.13  0.00  0.00  0.76  0.00
  YS02001751YS02001754    1.00   0.00  0.00  0.00  0.22  0.00  0.00  0.78  0.03  0.00
  YS02001754YS02001757    1.00   0.00  0.00  0.00  1.00  0.00  0.00  0.00  0.77  0.00
  YS02001757CaochengTiaoxuchi    1.00   0.00  0.00  0.00  0.97  0.03  0.00  0.00  0.64  0.00
  YS02001759YS02001757    1.00   0.00  0.00  0.00  0.98  0.02  0.00  0.00  0.54  0.00
  YS02001762YS02001759    1.00   0.00  0.00  0.00  1.00  0.00  0.00  0.00  0.05  0.00
  YS02001765YS02001762    1.00   0.00  0.00  0.00  1.00  0.00  0.00  0.00  0.69  0.00
  YS02001767YS02001765    1.00   0.00  0.00  0.00  1.00  0.00  0.00  0.00  0.00  0.00
  YS02001770YS02001767    1.00   0.00  0.00  0.00  1.00  0.00  0.00  0.00  0.00  0.00
  YS02001774YS02001770    1.00   0.00  0.13  0.00  0.71  0.00  0.16  0.00  0.02  0.00
  YS02001779YS02001774    1.00   0.00  0.00  0.00  1.00  0.00  0.00  0.00  0.74  0.00
  YS02001783YS02001784    1.00   0.00  0.16  0.00  0.84  0.00  0.00  0.00  0.55  0.00
  YS02001784YS02001785    1.00   0.00  0.00  0.00  1.00  0.00  0.00  0.00  0.15  0.00
  YS02001786YS02001788    1.00   0.00  0.00  0.00  0.79  0.21  0.00  0.00  0.00  0.00
  YS02001788YS02001790    1.00   0.00  0.00  0.00  0.21  0.79  0.00  0.00  0.78  0.00
  YS02001790YS02001791    1.00   0.00  0.00  0.00  0.01  0.99  0.00  0.00  0.17  0.00
  YS02001791YS02001793    1.00   0.00  0.00  0.00  0.00  1.00  0.00  0.00  0.01  0.00
  YS02001793JiankangQianchi    1.00   0.00  0.00  0.00  0.96  0.04  0.00  0.00  0.95  0.00
  YS02001882YS02001884    1.00   0.14  0.01  0.00  0.85  0.00  0.00  0.00  0.00  0.00
  YS02001884YS02001887    1.00   0.06  0.05  0.00  0.89  0.00  0.00  0.00  0.00  0.00
  YS02001887YS02001890    1.00   0.00  0.00  0.00  0.97  0.00  0.03  0.00  0.00  0.00
  YS02001890YS02001895    1.00   0.00  0.15  0.00  0.85  0.00  0.00  0.00  0.00  0.00
  YS02001895YS02001898    1.00   0.15  0.00  0.00  0.83  0.00  0.01  0.00  0.00  0.00
  YS02001898YS02001901    1.00   0.15  0.00  0.00  0.85  0.00  0.00  0.00  0.00  0.00
  YS02001901YS02001904    1.00   0.15  0.00  0.00  0.85  0.00  0.00  0.00  0.00  0.00
  YS02001904YS02001907    1.00   0.00  0.15  0.00  0.85  0.00  0.00  0.00  0.00  0.00
  YS02001907YS02006553    1.00   0.00  0.02  0.00  0.98  0.00  0.00  0.00  0.00  0.00
  YS02001910YS02001907    1.00   0.00  0.00  0.00  0.97  0.00  0.00  0.03  0.12  0.00
  YS02001915YS02001910    1.00   0.00  0.00  0.00  0.97  0.03  0.00  0.00  0.13  0.00
  YS02001918YS02001915    1.00   0.00  0.01  0.00  0.98  0.02  0.00  0.00  0.71  0.00
  YS02001920YS02001918    1.00   0.00  0.01  0.00  0.99  0.00  0.00  0.00  0.00  0.00
  YS02001923YS02001920    1.00   0.00  0.00  0.00  1.00  0.00  0.00  0.00  0.90  0.00
  YS02001926YS02001923    1.00   0.00  0.07  0.00  0.08  0.00  0.85  0.00  0.00  0.00
  YS02001929YS02001926    1.00   0.00  0.13  0.00  0.87  0.00  0.00  0.00  0.80  0.00
  YS02006553YS02006556    1.00   0.01  0.00  0.00  0.99  0.00  0.00  0.00  0.03  0.00
  YS02006556YS02006558    1.00   0.00  0.00  0.00  1.00  0.00  0.00  0.00  0.00  0.00
  YS02006558YS02006561    1.00   0.16  0.00  0.00  0.08  0.76  0.00  0.00  0.18  0.00
  YS02006561YS02001783    1.00   0.16  0.00  0.00  0.11  0.73  0.00  0.00  0.66  0.00
  YS02163301YS02001633    1.00   0.00  0.14  0.00  0.86  0.00  0.00  0.00  0.00  0.00
  YS02163601YS02164001    1.00   0.00  0.08  0.00  0.92  0.00  0.00  0.00  0.00  0.00
  YS02164001YS02001641    1.00   0.01  0.07  0.00  0.92  0.00  0.00  0.00  0.05  0.00
  
  
  *************************
  Conduit Surcharge Summary
  *************************
  
  ----------------------------------------------------------------------------
                                                           Hours        Hours 
                         --------- Hours Full --------   Above Full   Capacity
  Conduit                Both Ends  Upstream  Dnstream   Normal Flow   Limited
  ----------------------------------------------------------------------------
  WS02003072WS02003073        0.01      0.01      0.01      1.46         0.01
  WS02004404WS02004405        0.01      0.01      0.01      3.53         0.01
  WS02004405WS02004406        0.01      0.01      0.01      0.98         0.01
  WS02006109WS02006110        1.00      1.00      2.02      1.11         0.01
  WS02006110WS02006113        0.01      0.01      2.01      0.01         0.01
  WS02006111WS02006112        0.01      0.01      2.13      0.01         0.01
  WS02006112WS02006115        0.01      0.01      1.08      0.01         0.01
  WS02006228WS02006109        1.99      2.02      1.99      2.42         1.99
  WS02006229WS02006228        1.99      2.00      1.99      2.21         1.98
  WS02006230WS02006229        2.04      2.15      2.04      4.15         2.04
  WS02006231WS02006230        1.00      1.00      1.16      3.80         0.01
  WS02006232WS02006231        1.12      1.12      2.02      1.19         0.01
  WS02006234WS02006232        1.95      1.95      2.02      1.17         1.16
  WS02006235WS02006234        1.39      1.40      1.96      3.59         0.01
  WS02006238WS02006235        1.98      1.98      2.02      0.01         0.01
  WS02006239WS02006238        2.00      2.01      2.00      2.15         1.77
  WS02006240WS02006239        1.98      2.00      1.98      2.17         1.66
  WS02006242WS02006240        1.99      1.99      2.01      2.32         0.01
  WS02006243WS02006242        1.99      1.99      2.00      0.01         0.04
  WS02006245WS02006243        1.98      1.98      1.99      1.17         1.10
  WS02006247WS02006245        1.98      1.98      1.98      3.39         1.97
  WS02006248WS02006247        1.98      1.98      1.98      0.01         0.04
  WS02006249WS02006248        1.97      1.97      1.97      3.33         0.01
  WS02006251WS02006249        1.97      1.97      1.97      2.27         1.91
  WS02006252WS02006251        2.32      2.32      2.33      2.32         0.01
  WS02006256WS02006235        3.63      3.66      6.43      1.39         0.01
  YS02001580YS02001583        0.84      0.84      0.91      0.01         0.01
  YS02001583YS02001586        0.84      0.84      1.04      0.01         0.01
  YS02001586YS02001590        1.05      1.05      1.13      0.01         0.01
  YS02001590YS02001593        1.13      1.13      1.15      1.22         0.01
  YS02001593YS02001596        1.14      1.14      1.27      0.01         0.01
  YS02001596YS02001600        1.33      1.33      1.46      0.01         0.01
  YS02001600YS02001601        1.55      1.55      1.74      0.01         0.01
  YS02001601YS02001602        1.67      1.67      1.77      1.47         0.01
  YS02001602YS02001605        1.63      1.63      1.67      2.41         0.01
  YS02001605YS02001607        1.60      1.63      1.60      1.72         1.60
  YS02001607YS02001610        1.13      1.13      1.16      0.01         0.01
  YS02001610YS02001613        1.12      1.12      1.16      0.01         0.01
  YS02001613YS02001616        1.07      1.07      1.12      0.01         0.01
  YS02001616YS02001619        1.05      1.05      1.07      0.01         0.03
  YS02001619YS02001622        1.05      1.05      1.05      1.11         0.99
  YS02001622YS02001625        1.05      1.05      1.28      0.01         0.01
  YS02001625YS02001629        0.99      0.99      1.28      0.01         0.01
  YS02001629YS02163301        1.28      1.28      1.29      0.02         0.16
  YS02001633YS02163601        1.31      1.31      1.35      0.43         0.39
  YS02001641YS02001644        1.23      1.26      1.23      1.79         1.22
  YS02001644YS02001647        0.99      0.99      1.23      0.04         0.01
  YS02001647YS02001649        0.99      0.99      1.15      0.01         0.01
  YS02001649YS02001757        1.15      1.15      1.25      0.05         0.07
  YS02001652YS02001649        0.93      0.93      1.15      0.01         0.01
  YS02001655YS02001652        0.61      0.61      0.90      0.01         0.01
  YS02001658YS02001655        0.29      0.29      0.61      0.01         0.01
  YS02001661YS02001658        0.02      0.02      0.29      0.01         0.01
  YS02001664YS02001661        0.01      0.01      0.08      0.01         0.01
  YS02001745YS02001748        0.01      0.01      0.19      0.01         0.01
  YS02001748YS02001751        0.25      0.25      0.41      0.01         0.01
  YS02001751YS02001754        0.41      0.41      0.76      0.01         0.01
  YS02001754YS02001757        0.83      0.83      1.25      0.01         0.01
  YS02001757CaochengTiaoxuchi        1.16      1.25      1.93      0.47         0.37
  YS02001759YS02001757        1.13      1.13      1.25      0.05         0.05
  YS02001762YS02001759        1.08      1.08      1.13      0.01         0.02
  YS02001765YS02001762        1.03      1.03      1.08      0.01         0.01
  YS02001767YS02001765        0.99      0.99      1.03      0.01         0.03
  YS02001770YS02001767        0.98      0.98      0.99      0.70         0.66
  YS02001774YS02001770        0.95      0.95      1.06      0.01         0.01
  YS02001779YS02001774        0.73      0.73      1.06      0.01         0.01
  YS02001783YS02001784        0.68      0.71      0.68      0.88         0.68
  YS02001784YS02001785        0.56      0.68      0.56      1.23         0.56
  YS02001786YS02001788        0.01      0.56      0.01      1.04         0.01
  YS02001790YS02001791        0.01      0.01      0.01      0.66         0.01
  YS02001793JiankangQianchi        0.01      0.01      7.25      0.01         0.01
  YS02001882YS02001884        0.64      0.64      0.65      0.01         0.01
  YS02001884YS02001887        0.68      0.68      0.70      0.01         0.01
  YS02001887YS02001890        0.71      0.71      0.72      0.16         0.01
  YS02001890YS02001895        0.63      0.63      0.75      0.01         0.01
  YS02001895YS02001898        0.62      0.62      0.63      0.01         0.01
  YS02001898YS02001901        0.63      0.63      0.68      0.01         0.01
  YS02001901YS02001904        0.67      0.67      0.68      0.01         0.01
  YS02001904YS02001907        0.67      0.67      1.00      0.01         0.01
  YS02001907YS02006553        1.24      1.24      1.34      0.01         0.01
  YS02001910YS02001907        0.75      0.75      0.96      0.01         0.01
  YS02001915YS02001910        0.64      0.64      0.75      0.01         0.01
  YS02001918YS02001915        0.54      0.54      0.64      0.01         0.01
  YS02001920YS02001918        0.54      0.54      0.56      0.01         0.01
  YS02001923YS02001920        0.49      0.49      0.56      0.01         0.01
  YS02001926YS02001923        0.14      0.14      0.18      0.01         0.01
  YS02001929YS02001926        0.01      0.01      0.18      0.01         0.01
  YS02006553YS02006556        0.84      0.84      0.98      0.01         0.01
  YS02006556YS02006558        0.91      0.91      1.03      0.01         0.01
  YS02006558YS02006561        0.58      0.84      0.58      1.16         0.58
  YS02006561YS02001783        0.50      0.50      0.71      0.01         0.01
  YS02163301YS02001633        1.29      1.29      1.33      0.01         0.01
  YS02163601YS02164001        1.26      1.26      1.35      0.04         0.01
  YS02164001YS02001641        1.26      1.26      1.26      0.95         0.92
  
  
  ***************
  Pumping Summary
  ***************
  
  ---------------------------------------------------------------------------------------------------------
                                                  Min       Avg       Max     Total     Power    % Time Off
                        Percent   Number of      Flow      Flow      Flow    Volume     Usage    Pump Curve
  Pump                 Utilized   Start-Ups       LPS       LPS       LPS  10^6 ltr     Kw-hr    Low   High
  ---------------------------------------------------------------------------------------------------------
  CC-R1                   23.84          11      0.00    683.00    683.00     4.690     87.84    0.0   16.5
  CC-R2                   25.04          18      0.00    683.00    683.00     4.926     91.62    0.0   22.0
  CC-S1                   42.09          11      0.00    200.00    200.00     2.424     13.92    0.0    0.0
  CC-S2                   30.47          13      0.00    200.00    200.00     1.755      9.83    0.0    0.0
  JK-R1                    9.66          16      0.00   1000.00   1000.00     2.782     28.97    0.0    0.0
  JK-R2                    2.90           8      0.00   1000.00   1000.00     0.835      7.64    0.0    0.0
  JK-S                    16.98          26      0.00    300.00    300.00     1.467     21.41    0.0    0.0
  

  Analysis begun on:  Wed Dec 25 13:04:53 2024
  Analysis ended on:  Wed Dec 25 13:04:54 2024
  Total elapsed time: 00:00:01