
  EPA STORM WATER MANAGEMENT MODEL - VERSION 5.2 (Build 5.2.4)
  PYSWMM TOOLKIT API - VERSION v1.0 (2023-11-27)
  ------------------------------------------------------------

  WARNING 04: minimum elevation drop used for Conduit WS02004404WS02004405
  WARNING 03: negative offset ignored for Link YS02001904YS02001907
  
  ****************
  Analysis Options
  ****************
  Flow Units ............... LPS
  Process Models:
    Rainfall/Runoff ........ YES
    RDII ................... NO
    Snowmelt ............... NO
    Groundwater ............ NO
    Flow Routing ........... YES
    Ponding Allowed ........ NO
    Water Quality .......... NO
  Infiltration Method ...... HORTON
  Flow Routing Method ...... DYNWAVE
  Surcharge Method ......... EXTRAN
  Starting Date ............ 08/28/2015 08:00:00
  Ending Date .............. 08/28/2015 16:00:00
  Antecedent Dry Days ...... 8.0
  Report Time Step ......... 00:01:00
  Wet Time Step ............ 00:01:00
  Dry Time Step ............ 00:01:00
  Routing Time Step ........ 30.00 sec
  Variable Time Step ....... YES
  Maximum Trials ........... 8
  Number of Threads ........ 4
  Head Tolerance ........... 0.001500 m
  
  
  **************************        Volume         Depth
  Runoff Quantity Continuity     hectare-m            mm
  **************************     ---------       -------
  Total Precipitation ......         2.133        64.297
  Evaporation Loss .........         0.000         0.000
  Infiltration Loss ........         0.099         2.979
  Surface Runoff ...........         2.001        60.337
  Final Storage ............         0.033         0.994
  Continuity Error (%) .....        -0.021
  
  
  **************************        Volume        Volume
  Flow Routing Continuity        hectare-m      10^6 ltr
  **************************     ---------     ---------
  Dry Weather Inflow .......         0.025         0.251
  Wet Weather Inflow .......         2.001        20.015
  Groundwater Inflow .......         0.000         0.000
  RDII Inflow ..............         0.000         0.000
  External Inflow ..........         0.083         0.834
  External Outflow .........         1.612        16.122
  Flooding Loss ............         0.569         5.690
  Evaporation Loss .........         0.000         0.000
  Exfiltration Loss ........         0.000         0.000
  Initial Stored Volume ....         0.243         2.431
  Final Stored Volume ......         0.182         1.819
  Continuity Error (%) .....        -0.428
  
  
  *************************
  Highest Continuity Errors
  *************************
  Node YS02001583 (-7.68%)
  Node YS02001884 (5.00%)
  Node WS02006256 (-2.79%)
  
  
  ***************************
  Time-Step Critical Elements
  ***************************
  Link WS02004404WS02004405 (22.19%)
  Link WS02006238WS02006235 (20.25%)
  Link WS02006252WS02006251 (14.85%)
  Link WS02006235WS02006234 (11.35%)
  Link YS02001791YS02001793 (10.91%)
  
  
  ********************************
  Highest Flow Instability Indexes
  ********************************
  Link WS02006113WS02006111 (33)
  Link WS02006111WS02006112 (23)
  Link WS02006238WS02006235 (22)
  Link WS02006252WS02006251 (22)
  Link WS02006256WS02006235 (22)
  
  
  *********************************
  Most Frequent Nonconverging Nodes
  *********************************
  Node CC-1 (18.67%)
  Node CC-2 (18.67%)
  Node JK-1 (18.67%)
  Node JK-2 (18.67%)
  Node WSC (18.67%)
  
  
  *************************
  Routing Time Step Summary
  *************************
  Minimum Time Step           :     0.01 sec
  Average Time Step           :     2.98 sec
  Maximum Time Step           :     6.43 sec
  % of Time in Steady State   :     0.00
  Average Iterations per Step :     3.71
  % of Steps Not Converging   :    18.67
  Time Step Frequencies       :
     30.000 - 13.228 sec      :     0.00 %
     13.228 -  5.833 sec      :    15.40 %
      5.833 -  2.572 sec      :    35.76 %
      2.572 -  1.134 sec      :    28.67 %
      1.134 -  0.500 sec      :    20.17 %
  
  
  ***************************
  Subcatchment Runoff Summary
  ***************************
  
  ------------------------------------------------------------------------------------------------------------------------------
                            Total      Total      Total      Total     Imperv       Perv      Total       Total     Peak  Runoff
                           Precip      Runon       Evap      Infil     Runoff     Runoff     Runoff      Runoff   Runoff   Coeff
  Subcatchment                 mm         mm         mm         mm         mm         mm         mm    10^6 ltr      LPS
  ------------------------------------------------------------------------------------------------------------------------------
  sub60                     64.30       0.00       0.00       1.81      55.38       5.91      61.29        0.81   503.57   0.953
  sub61                     64.30       0.00       0.00       2.62      52.24       8.32      60.55        1.11   696.55   0.942
  sub62                     64.30       0.00       0.00       1.20      57.87       3.94      61.81        1.69   982.69   0.961
  sub63                     64.30       0.00       0.00       4.80      44.68      13.85      58.53        1.33   770.64   0.910
  sub64                     64.30       0.00       0.00       2.43      53.45       7.22      60.66        1.46   793.67   0.943
  sub65                     64.30       0.00       0.00       2.10      54.69       6.26      60.94        1.68   888.21   0.948
  sub66                     64.30       0.00       0.00       5.90      44.58      12.74      57.32        2.67  1149.00   0.891
  sub67                     64.30       0.00       0.00       1.16      57.91       3.98      61.89        1.15   761.04   0.963
  sub68                     64.30       0.00       0.00       2.17      54.11       6.84      60.95        1.68  1004.04   0.948
  sub69                     64.30       0.00       0.00       1.92      54.54       7.73      62.27        2.31  1186.24   0.968
  sub70                     64.30       0.00       0.00       6.34      42.27      15.52      57.79        1.67   647.25   0.899
  sub71                     64.30       0.00       0.00       1.23      57.83       3.91      61.74        1.61   861.86   0.960
  sub72                     64.30       0.00       0.00       1.10      58.39       3.41      61.80        0.85   415.82   0.961
  
  
  ******************
  Node Depth Summary
  ******************
  
  ---------------------------------------------------------------------------------
                                 Average  Maximum  Maximum  Time of Max    Reported
                                   Depth    Depth      HGL   Occurrence   Max Depth
  Node                 Type       Meters   Meters   Meters  days hr:min      Meters
  ---------------------------------------------------------------------------------
  WS02003060           JUNCTION     0.20     0.38     5.32     0  02:38        0.38
  WS02003066           JUNCTION     0.17     0.30     5.85     0  02:37        0.30
  WS02003067           JUNCTION     0.45     0.70     6.02     0  02:37        0.70
  WS02003069           JUNCTION     0.23     0.43     5.01     0  02:38        0.43
  WS02003072           JUNCTION     0.28     0.50     4.87     0  02:39        0.50
  WS02003073           JUNCTION     0.16     0.30     4.36     0  02:39        0.30
  WS02004401           JUNCTION     0.53     0.85     6.85     0  02:35        0.85
  WS02004402           JUNCTION     0.56     0.88     6.84     0  02:34        0.88
  WS02004403           JUNCTION     0.59     0.89     6.82     0  02:35        0.89
  WS02004404           JUNCTION     0.66     0.96     6.81     0  02:35        0.96
  WS02004405           JUNCTION     0.66     0.96     6.81     0  02:35        0.96
  WS02004406           JUNCTION     0.67     0.96     6.79     0  02:35        0.96
  WS02004407           JUNCTION     0.15     0.30     6.61     0  02:35        0.30
  WS02004409           JUNCTION     0.33     0.67     6.44     0  02:35        0.67
  WS02004410           JUNCTION     0.36     0.68     6.40     0  02:36        0.68
  WS02004411           JUNCTION     0.38     0.69     6.37     0  02:36        0.69
  WS02004412           JUNCTION     0.41     0.70     6.34     0  02:36        0.70
  WS02004413           JUNCTION     0.56     0.86     6.33     0  02:37        0.86
  WS02006109           JUNCTION     0.59     1.34     7.96     0  02:41        1.04
  WS02006110           JUNCTION     0.59     1.43     8.01     0  02:41        1.00
  WS02006111           JUNCTION     0.15     0.29     7.00     0  03:11        0.29
  WS02006112           JUNCTION     0.68     1.08     6.97     0  03:01        1.07
  WS02006113           JUNCTION     0.23     0.47     7.36     0  03:11        0.46
  WS02006115           JUNCTION     0.42     0.75     6.89     0  02:34        0.75
  WS02006116           JUNCTION     0.50     0.83     6.87     0  02:34        0.83
  WS02006228           JUNCTION     0.59     1.26     7.91     0  02:41        1.08
  WS02006229           JUNCTION     0.56     1.27     7.97     0  03:11        1.07
  WS02006230           JUNCTION     0.56     1.41     8.16     0  03:11        1.15
  WS02006231           JUNCTION     0.38     1.17     8.29     0  02:21        0.89
  WS02006232           JUNCTION     0.51     1.56     8.60     0  02:40        1.14
  WS02006234           JUNCTION     0.44     1.76     8.92     0  02:40        1.69
  WS02006235           JUNCTION     0.49     2.00     9.16     0  02:40        2.00
  WS02006238           JUNCTION     0.51     2.15     9.29     0  03:11        2.15
  WS02006239           JUNCTION     0.47     2.03     9.24     0  03:11        2.03
  WS02006240           JUNCTION     0.45     2.10     9.39     0  03:11        2.10
  WS02006242           JUNCTION     0.51     1.55     8.82     0  02:40        1.55
  WS02006243           JUNCTION     0.43     1.48     8.90     0  03:11        1.48
  WS02006245           JUNCTION     0.44     1.56     9.04     0  03:11        1.56
  WS02006247           JUNCTION     0.46     1.47     8.97     0  03:11        1.47
  WS02006248           JUNCTION     0.43     1.10     8.69     0  02:40        1.10
  WS02006249           JUNCTION     0.46     1.09     8.69     0  01:54        1.09
  WS02006251           JUNCTION     0.46     1.39     9.06     0  01:54        1.14
  WS02006252           JUNCTION     0.31     1.50     9.74     0  00:00        0.77
  WS02006256           JUNCTION     1.04     2.35     9.28     0  00:00        2.35
  WSF200               JUNCTION     0.14     0.29     5.52     0  02:37        0.29
  YS02001580           JUNCTION     0.14     1.05     9.59     0  01:44        1.05
  YS02001583           JUNCTION     0.18     1.13     9.63     0  01:44        0.96
  YS02001586           JUNCTION     0.27     1.13     9.30     0  01:44        1.13
  YS02001590           JUNCTION     0.38     1.40     9.26     0  01:42        1.38
  YS02001593           JUNCTION     0.31     1.46     9.32     0  01:44        1.46
  YS02001596           JUNCTION     0.42     1.80     9.22     0  01:44        1.80
  YS02001600           JUNCTION     0.51     1.87     9.00     0  01:44        1.87
  YS02001601           JUNCTION     0.69     2.06     8.90     0  01:44        2.06
  YS02001602           JUNCTION     0.60     1.87     8.77     0  01:44        1.87
  YS02001605           JUNCTION     0.56     1.78     8.68     0  02:18        1.78
  YS02001607           JUNCTION     0.53     1.65     8.50     0  02:18        1.65
  YS02001610           JUNCTION     0.57     1.68     8.48     0  01:44        1.68
  YS02001613           JUNCTION     0.53     1.67     8.51     0  02:18        1.67
  YS02001616           JUNCTION     0.47     1.61     8.52     0  02:18        1.61
  YS02001619           JUNCTION     0.45     1.59     8.52     0  01:48        1.59
  YS02001622           JUNCTION     0.44     1.57     8.47     0  01:52        1.57
  YS02001625           JUNCTION     0.68     1.78     8.38     0  01:44        1.78
  YS02001629           JUNCTION     0.57     1.85     8.40     0  01:44        1.85
  YS02001633           JUNCTION     0.64     2.08     8.53     0  01:46        1.99
  YS02001641           JUNCTION     0.61     1.97     8.40     0  01:46        1.93
  YS02001644           JUNCTION     0.60     1.92     8.35     0  01:47        1.92
  YS02001647           JUNCTION     0.39     1.81     8.42     0  01:48        1.74
  YS02001649           JUNCTION     0.45     2.05     8.44     0  01:48        1.96
  YS02001652           JUNCTION     0.33     2.09     8.69     0  01:48        1.79
  YS02001655           JUNCTION     0.25     2.20     9.05     0  01:48        1.57
  YS02001658           JUNCTION     0.18     2.30     9.44     0  01:48        1.30
  YS02001661           JUNCTION     0.18     1.50     8.90     0  01:48        1.06
  YS02001664           JUNCTION     0.07     0.83     8.76     0  01:49        0.65
  YS02001745           JUNCTION     0.09     1.47     8.99     0  01:48        0.95
  YS02001748           JUNCTION     0.17     2.27     9.35     0  01:48        1.33
  YS02001751           JUNCTION     0.21     2.20     9.08     0  01:48        1.48
  YS02001754           JUNCTION     0.30     2.20     8.81     0  01:47        1.70
  YS02001757           JUNCTION     0.47     2.15     8.41     0  01:48        1.99
  YS02001759           JUNCTION     0.42     2.12     8.49     0  01:48        1.99
  YS02001762           JUNCTION     0.41     2.10     8.50     0  01:48        1.96
  YS02001765           JUNCTION     0.38     2.10     8.55     0  01:47        1.91
  YS02001767           JUNCTION     0.38     2.03     8.52     0  01:47        1.88
  YS02001770           JUNCTION     0.39     1.95     8.44     0  01:47        1.90
  YS02001774           JUNCTION     0.45     2.05     8.47     0  01:47        1.96
  YS02001779           JUNCTION     0.28     1.68     8.37     0  01:47        1.68
  YS02001783           JUNCTION     0.31     1.59     7.73     0  01:46        1.23
  YS02001784           JUNCTION     0.32     1.31     7.38     0  01:46        1.12
  YS02001786           JUNCTION     0.26     1.01     7.04     0  01:46        0.87
  YS02001788           JUNCTION     0.19     0.62     6.60     0  01:47        0.62
  YS02001790           JUNCTION     0.22     0.72     6.37     0  01:49        0.72
  YS02001791           JUNCTION     0.14     0.44     5.91     0  01:56        0.43
  YS02001793           JUNCTION     0.07     0.29     5.12     0  01:49        0.28
  YS02001882           JUNCTION     0.39     1.83     8.55     0  01:45        1.64
  YS02001884           JUNCTION     0.48     1.92     8.53     0  01:45        1.75
  YS02001887           JUNCTION     0.55     1.91     8.45     0  01:45        1.82
  YS02001890           JUNCTION     0.58     1.81     8.32     0  01:45        1.81
  YS02001895           JUNCTION     0.36     1.70     8.45     0  01:45        1.57
  YS02001898           JUNCTION     0.37     1.77     8.51     0  01:45        1.56
  YS02001901           JUNCTION     0.47     1.87     8.48     0  01:45        1.68
  YS02001904           JUNCTION     0.45     1.74     8.37     0  01:45        1.63
  YS02001907           JUNCTION     0.76     1.96     8.25     0  01:45        1.96
  YS02001910           JUNCTION     0.57     2.03     8.54     0  01:46        1.86
  YS02001915           JUNCTION     0.39     2.00     8.72     0  01:45        1.74
  YS02001918           JUNCTION     0.24     1.81     8.88     0  01:46        1.45
  YS02001920           JUNCTION     0.31     2.10     9.11     0  01:47        1.53
  YS02001923           JUNCTION     0.18     2.03     9.29     0  01:47        1.32
  YS02001926           JUNCTION     0.21     1.90     9.35     0  01:47        1.15
  YS02001929           JUNCTION     0.12     1.78     9.47     0  01:47        0.93
  YS02006553           JUNCTION     0.76     2.07     8.36     0  01:46        1.97
  YS02006556           JUNCTION     0.74     2.17     8.48     0  01:46        1.95
  YS02006558           JUNCTION     0.78     2.24     8.50     0  01:46        2.01
  YS02006561           JUNCTION     0.20     1.44     8.10     0  01:46        0.90
  YS02163301           JUNCTION     0.59     1.96     8.47     0  01:46        1.91
  YS02163601           JUNCTION     0.67     2.08     8.48     0  01:46        2.01
  YS02164001           JUNCTION     0.60     2.00     8.46     0  01:46        1.92
  CC-1                 OUTFALL      0.00     0.00     0.00     0  00:00        0.00
  CC-2                 OUTFALL      0.00     0.00     0.00     0  00:00        0.00
  JK-1                 OUTFALL      0.00     0.00     0.00     0  00:00        0.00
  JK-2                 OUTFALL      0.00     0.00     0.00     0  00:00        0.00
  WSC                  OUTFALL      0.16     0.30     0.97     0  02:39        0.30
  CC-storage           STORAGE      0.84     1.59     7.09     0  02:23        1.59
  JK-storage           STORAGE      1.57     4.21     5.01     0  01:48        4.20
  
  
  *******************
  Node Inflow Summary
  *******************
  
  -------------------------------------------------------------------------------------------------
                                  Maximum  Maximum                  Lateral       Total        Flow
                                  Lateral    Total  Time of Max      Inflow      Inflow     Balance
                                   Inflow   Inflow   Occurrence      Volume      Volume       Error
  Node                 Type           LPS      LPS  days hr:min    10^6 ltr    10^6 ltr     Percent
  -------------------------------------------------------------------------------------------------
  WS02003060           JUNCTION     16.53   553.47     0  02:37       0.476        4.63       0.051
  WS02003066           JUNCTION      0.00   536.82     0  02:37           0        4.16       0.035
  WS02003067           JUNCTION      0.00   536.78     0  02:37           0        4.16       0.102
  WS02003069           JUNCTION      0.32   553.70     0  02:38     0.00922        4.64       0.089
  WS02003072           JUNCTION      0.00   553.51     0  02:38           0        4.63       0.155
  WS02003073           JUNCTION      1.82   555.18     0  02:39      0.0524        4.68       0.125
  WS02004401           JUNCTION      0.00   545.01     0  03:12           0        4.26       0.241
  WS02004402           JUNCTION      0.00   537.73     0  02:34           0        4.25       0.245
  WS02004403           JUNCTION      0.00   537.64     0  02:35           0        4.24       0.238
  WS02004404           JUNCTION      0.16   537.67     0  02:35     0.00467        4.24       0.207
  WS02004405           JUNCTION      0.04   537.54     0  02:35      0.0011        4.23       0.290
  WS02004406           JUNCTION      0.00   537.43     0  02:35           0        4.22       0.496
  WS02004407           JUNCTION      0.00   537.41     0  02:35           0         4.2       0.027
  WS02004409           JUNCTION      0.00   537.30     0  02:35           0        4.19       0.065
  WS02004410           JUNCTION      0.00   537.25     0  02:36           0        4.19       0.107
  WS02004411           JUNCTION      0.00   537.06     0  02:36           0        4.19       0.136
  WS02004412           JUNCTION      0.00   537.00     0  02:36           0        4.18       0.181
  WS02004413           JUNCTION      0.00   536.97     0  02:36           0        4.17       0.324
  WS02006109           JUNCTION      1.23   585.48     0  03:11      0.0354        4.31       0.206
  WS02006110           JUNCTION      0.00   590.41     0  03:11           0         4.3       0.175
  WS02006111           JUNCTION      0.00   576.54     0  03:11           0        4.29       0.014
  WS02006112           JUNCTION      0.00   555.09     0  03:11           0        4.29       0.443
  WS02006113           JUNCTION      0.00   605.71     0  03:11           0         4.3       0.053
  WS02006115           JUNCTION      0.00   571.13     0  03:11           0        4.27       0.161
  WS02006116           JUNCTION      0.00   552.64     0  03:12           0        4.27       0.114
  WS02006228           JUNCTION      0.00   576.10     0  03:11           0        4.28       0.108
  WS02006229           JUNCTION      0.00   574.33     0  03:11           0        4.29       0.125
  WS02006230           JUNCTION     10.28   589.98     0  02:55       0.296        4.29       0.122
  WS02006231           JUNCTION      0.00   584.78     0  02:55           0           4       0.002
  WS02006232           JUNCTION      0.00   583.50     0  02:55           0           4       0.206
  WS02006234           JUNCTION      0.00   575.93     0  02:55           0        3.99      -0.414
  WS02006235           JUNCTION      0.00   566.79     0  03:00           0        4.13       0.335
  WS02006238           JUNCTION      0.00   424.32     0  01:55           0        3.25      -0.047
  WS02006239           JUNCTION      0.00   424.30     0  02:00           0        3.16      -0.026
  WS02006240           JUNCTION      0.00   422.77     0  02:00           0        3.11      -0.021
  WS02006242           JUNCTION      0.00   422.87     0  02:00           0        3.09      -0.017
  WS02006243           JUNCTION      0.00   424.06     0  02:00           0        3.08      -0.187
  WS02006245           JUNCTION      0.00   424.76     0  02:00           0        3.09       0.409
  WS02006247           JUNCTION      0.00   425.17     0  02:00           0        3.09      -0.013
  WS02006248           JUNCTION      0.00   426.53     0  02:00           0        3.09       0.012
  WS02006249           JUNCTION      0.00   459.02     0  00:00           0        3.31       0.463
  WS02006251           JUNCTION      0.08   407.56     0  01:54     0.00222        3.31       0.031
  WS02006252           JUNCTION      0.00   400.00     0  00:00           0        3.29      -0.480
  WS02006256           JUNCTION      0.00   300.00     0  00:00           0         1.3      -2.710
  WSF200               JUNCTION      0.00   536.86     0  02:37           0        4.15       0.010
  YS02001580           JUNCTION      0.00   126.53     0  01:44           0     0.00431      -0.118
  YS02001583           JUNCTION      0.00   205.91     0  01:44           0      0.0148      -7.135
  YS02001586           JUNCTION    647.25   647.26     0  01:53        1.67        1.68       0.084
  YS02001590           JUNCTION      0.00   317.90     0  02:14           0        1.35      -0.038
  YS02001593           JUNCTION      0.00   317.96     0  01:59           0        1.35       0.003
  YS02001596           JUNCTION      0.00   317.98     0  02:07           0        1.35      -0.007
  YS02001600           JUNCTION      0.00   318.08     0  02:07           0        1.35       0.006
  YS02001601           JUNCTION   1186.24  1503.80     0  01:52        2.31        3.66       0.013
  YS02001602           JUNCTION      0.00   547.04     0  01:44           0         2.3       0.016
  YS02001605           JUNCTION      0.00   547.20     0  01:44           0        2.18       0.020
  YS02001607           JUNCTION      0.00   546.87     0  01:44           0        2.18       0.087
  YS02001610           JUNCTION      0.00   604.82     0  01:53           0        2.33       0.087
  YS02001613           JUNCTION      0.00   546.13     0  01:44           0        1.87       0.082
  YS02001616           JUNCTION      0.00   553.13     0  01:44           0        1.87       0.023
  YS02001619           JUNCTION   1149.00  1149.00     0  01:53        2.67        4.38       0.003
  YS02001622           JUNCTION      0.00   930.63     0  01:46           0        4.22      -0.008
  YS02001625           JUNCTION      0.00  1227.30     0  01:52           0        4.37       0.191
  YS02001629           JUNCTION      0.00   930.39     0  01:46           0        3.49       0.002
  YS02001633           JUNCTION    888.41  1431.31     0  01:46        1.68        4.98       0.067
  YS02001641           JUNCTION      0.00  1429.74     0  01:46           0         4.8       0.058
  YS02001644           JUNCTION    793.71  1888.87     0  01:46        1.46        6.26       0.054
  YS02001647           JUNCTION      0.00  1889.28     0  01:46           0        6.02       0.009
  YS02001649           JUNCTION      0.00  2197.19     0  01:46           0        7.36       0.005
  YS02001652           JUNCTION      0.00   939.12     0  01:49           0        1.33      -0.089
  YS02001655           JUNCTION      0.15   939.70     0  01:49     0.00443        1.33      -0.110
  YS02001658           JUNCTION      0.00   938.71     0  01:49           0        1.33      -0.015
  YS02001661           JUNCTION      0.00   920.20     0  01:49           0        1.33       0.016
  YS02001664           JUNCTION    770.64   770.64     0  01:51        1.33        1.33      -0.016
  YS02001745           JUNCTION    503.57   646.64     0  01:48       0.805       0.807       0.183
  YS02001748           JUNCTION      0.04   636.42     0  01:49      0.0013       0.809      -0.419
  YS02001751           JUNCTION      0.01   639.21     0  01:49    0.000317       0.818       0.094
  YS02001754           JUNCTION      0.26   640.55     0  01:49     0.00749       0.831      -0.200
  YS02001757           JUNCTION      0.00  3554.18     0  01:49           0        10.9       0.048
  YS02001759           JUNCTION    696.59  1481.60     0  01:48        1.11        2.73      -0.014
  YS02001762           JUNCTION      0.00   855.51     0  01:48           0        1.62      -0.001
  YS02001765           JUNCTION      0.00   854.96     0  01:48           0        1.62       0.005
  YS02001767           JUNCTION      0.54   854.84     0  01:48      0.0154        1.62      -0.002
  YS02001770           JUNCTION    982.85   982.85     0  01:51         1.7        1.74      -0.026
  YS02001774           JUNCTION      0.00   474.28     0  01:47           0       0.157       0.591
  YS02001779           JUNCTION      0.01   480.77     0  01:47    0.000144       0.112      -0.393
  YS02001783           JUNCTION      0.00  1163.73     0  01:48           0        4.11       0.005
  YS02001784           JUNCTION      1.06  1164.57     0  01:48      0.0305        4.14       0.012
  YS02001786           JUNCTION      0.06  1164.50     0  01:48     0.00162        4.14       0.017
  YS02001788           JUNCTION      0.07  1164.82     0  01:49     0.00204        4.14       0.007
  YS02001790           JUNCTION      0.15  1177.65     0  01:47     0.00446        4.15       0.028
  YS02001791           JUNCTION      0.00  1285.64     0  01:49           0        4.14      -0.028
  YS02001793           JUNCTION      0.00  1256.87     0  01:49           0        4.15       0.005
  YS02001882           JUNCTION      0.00    55.13     0  01:45           0      0.0129       4.501
  YS02001884           JUNCTION      0.00   104.51     0  01:45           0      0.0484       5.261
  YS02001887           JUNCTION    761.49   761.52     0  01:50        1.16         1.2       0.360
  YS02001890           JUNCTION      0.00   761.60     0  01:50           0        1.16       0.433
  YS02001895           JUNCTION      0.00   518.52     0  01:55           0        1.07       0.143
  YS02001898           JUNCTION      0.00   518.23     0  01:55           0        1.07       0.012
  YS02001901           JUNCTION      0.00   518.38     0  01:55           0        1.08       0.305
  YS02001904           JUNCTION      0.00   517.86     0  01:55           0        1.08       0.247
  YS02001907           JUNCTION      0.00  1826.18     0  01:51           0        3.62       0.470
  YS02001910           JUNCTION      0.00  1310.08     0  01:51           0        2.54       0.277
  YS02001915           JUNCTION    861.88  1310.04     0  01:51        1.62        2.59       0.058
  YS02001918           JUNCTION      0.00   518.90     0  01:46           0        1.01       0.004
  YS02001920           JUNCTION      2.87   499.36     0  01:47      0.0827       0.992       0.086
  YS02001923           JUNCTION      0.04   535.09     0  01:46     0.00109       0.892      -0.073
  YS02001926           JUNCTION      0.05   854.61     0  01:47      0.0015       0.871      -0.074
  YS02001929           JUNCTION    415.82   721.20     0  01:47        0.85       0.855      -0.066
  YS02006553           JUNCTION      0.00   795.69     0  02:09           0        2.46       0.481
  YS02006556           JUNCTION      0.00   795.32     0  02:09           0        2.47       0.318
  YS02006558           JUNCTION   1004.92  1166.82     0  01:46         1.7        4.14       0.082
  YS02006561           JUNCTION      0.00  1166.37     0  01:46           0        4.11       0.002
  YS02163301           JUNCTION      0.00   930.69     0  01:46           0        3.47       0.040
  YS02163601           JUNCTION      0.11  1431.02     0  01:46     0.00317         4.8       0.102
  YS02164001           JUNCTION      0.00  1430.53     0  01:46           0         4.8       0.046
  CC-1                 OUTFALL       0.00   683.00     0  00:00           0        4.77       0.000
  CC-2                 OUTFALL       0.00   683.00     0  00:00           0        3.71       0.000
  JK-1                 OUTFALL       0.00  1000.00     0  00:00           0        1.58       0.000
  JK-2                 OUTFALL       0.00  1000.00     0  00:00           0         1.4       0.000
  WSC                  OUTFALL       0.00   554.98     0  02:39           0        4.67       0.000
  CC-storage           STORAGE       0.00  3551.81     0  01:49           0        13.1      -0.238
  JK-storage           STORAGE       0.00  1233.60     0  01:53           0         4.3      -0.402
  
  
  **********************
  Node Surcharge Summary
  **********************
  
  Surcharging occurs when water rises above the top of the highest conduit.
  ---------------------------------------------------------------------
                                               Max. Height   Min. Depth
                                   Hours       Above Crown    Below Rim
  Node                 Type      Surcharged         Meters       Meters
  ---------------------------------------------------------------------
  WS02006109           JUNCTION        2.04          0.518        1.302
  WS02006110           JUNCTION        0.71          0.515        1.335
  WS02006112           JUNCTION        0.75          0.083        1.597
  WS02006228           JUNCTION        2.03          0.430        1.770
  WS02006229           JUNCTION        2.04          0.474        1.976
  WS02006230           JUNCTION        0.73          0.332        1.238
  WS02006231           JUNCTION        0.83          0.460        1.070
  WS02006232           JUNCTION        2.08          0.856        0.624
  WS02006234           JUNCTION        1.25          1.039        0.201
  WS02006235           JUNCTION        2.04          1.290        0.000
  WS02006238           JUNCTION        2.07          1.430        0.000
  WS02006239           JUNCTION        2.02          1.290        0.000
  WS02006240           JUNCTION        2.03          1.390        0.000
  WS02006242           JUNCTION        2.04          0.820        0.000
  WS02006243           JUNCTION        2.02          0.770        0.000
  WS02006245           JUNCTION        2.02          0.850        0.000
  WS02006247           JUNCTION        2.02          0.760        0.000
  WS02006248           JUNCTION        2.01          0.380        0.000
  WS02006249           JUNCTION        2.01          0.390        0.000
  WS02006251           JUNCTION        0.89          0.362        0.818
  WS02006252           JUNCTION        2.21          1.100        0.000
  WS02006256           JUNCTION        7.02          2.050        0.000
  YS02001580           JUNCTION        0.63          0.450        0.000
  YS02001583           JUNCTION        0.64          0.489        0.011
  YS02001586           JUNCTION        0.78          0.510        0.000
  YS02001590           JUNCTION        0.86          0.750        0.000
  YS02001593           JUNCTION        0.86          0.840        0.000
  YS02001596           JUNCTION        0.97          1.070        0.000
  YS02001600           JUNCTION        1.12          1.190        0.000
  YS02001601           JUNCTION        1.51          1.440        0.000
  YS02001602           JUNCTION        1.40          1.270        0.000
  YS02001605           JUNCTION        1.34          1.180        0.000
  YS02001607           JUNCTION        0.84          0.655        0.025
  YS02001610           JUNCTION        0.86          0.680        0.000
  YS02001613           JUNCTION        0.83          0.672        0.028
  YS02001616           JUNCTION        0.79          0.610        0.000
  YS02001619           JUNCTION        0.77          0.590        0.020
  YS02001622           JUNCTION        0.77          0.566        0.054
  YS02001625           JUNCTION        0.95          0.780        0.000
  YS02001629           JUNCTION        0.72          0.470        0.000
  YS02001633           JUNCTION        0.97          1.060        0.000
  YS02001641           JUNCTION        0.92          0.966        0.134
  YS02001644           JUNCTION        0.89          0.920        0.000
  YS02001647           JUNCTION        0.67          0.806        0.094
  YS02001649           JUNCTION        0.80          1.050        0.000
  YS02001652           JUNCTION        0.58          1.063        0.067
  YS02001655           JUNCTION        0.39          1.200        0.000
  YS02001658           JUNCTION        0.19          1.300        0.000
  YS02001661           JUNCTION        0.02          0.426        0.964
  YS02001745           JUNCTION        0.01          0.471        0.879
  YS02001748           JUNCTION        0.09          1.190        0.000
  YS02001751           JUNCTION        0.27          1.200        0.000
  YS02001754           JUNCTION        0.47          1.150        0.000
  YS02001757           JUNCTION        0.87          1.147        0.063
  YS02001759           JUNCTION        0.77          1.125        0.085
  YS02001762           JUNCTION        0.73          1.095        0.055
  YS02001765           JUNCTION        0.68          1.100        0.000
  YS02001767           JUNCTION        0.64          1.030        0.000
  YS02001770           JUNCTION        0.60          0.920        0.000
  YS02001774           JUNCTION        0.71          1.050        0.000
  YS02001779           JUNCTION        0.45          0.680        0.000
  YS02001783           JUNCTION        0.56          0.788        0.812
  YS02001784           JUNCTION        0.54          0.509        0.981
  YS02001786           JUNCTION        0.43          0.211        1.219
  YS02001882           JUNCTION        0.51          0.830        0.000
  YS02001884           JUNCTION        0.52          0.856        0.014
  YS02001887           JUNCTION        0.56          0.865        0.085
  YS02001890           JUNCTION        0.57          0.760        0.000
  YS02001895           JUNCTION        0.50          0.698        0.052
  YS02001898           JUNCTION        0.49          0.740        0.000
  YS02001901           JUNCTION        0.54          0.870        0.000
  YS02001904           JUNCTION        0.53          0.743        0.107
  YS02001907           JUNCTION        0.77          0.950        0.000
  YS02001910           JUNCTION        0.60          1.030        0.070
  YS02001915           JUNCTION        0.51          1.000        0.000
  YS02001918           JUNCTION        0.42          0.810        0.000
  YS02001920           JUNCTION        0.43          1.102        0.038
  YS02001923           JUNCTION        0.06          0.820        0.000
  YS02001926           JUNCTION        0.10          0.900        0.000
  YS02001929           JUNCTION        0.01          0.780        0.000
  YS02006553           JUNCTION        0.79          1.074        0.116
  YS02006556           JUNCTION        0.68          1.129        0.221
  YS02006558           JUNCTION        0.67          1.138        0.262
  YS02006561           JUNCTION        0.38          0.638        0.512
  YS02163301           JUNCTION        0.95          0.958        0.072
  YS02163601           JUNCTION        1.00          1.080        0.000
  YS02164001           JUNCTION        0.92          1.004        0.096
  
  
  *********************
  Node Flooding Summary
  *********************
  
  Flooding refers to all water that overflows a node, whether it ponds or not.
  --------------------------------------------------------------------------
                                                             Total   Maximum
                                 Maximum   Time of Max       Flood    Ponded
                        Hours       Rate    Occurrence      Volume     Depth
  Node                 Flooded       LPS   days hr:min    10^6 ltr    Meters
  --------------------------------------------------------------------------
  WS02006235              0.01      9.87      0  02:40       0.000     0.000
  WS02006238              0.01      2.45      0  03:11       0.000     0.000
  WS02006239              0.01      1.82      0  03:11       0.000     0.000
  WS02006240              0.01      1.71      0  03:11       0.000     0.000
  WS02006242              0.01     19.14      0  02:40       0.000     0.000
  WS02006243              0.01      1.41      0  03:11       0.000     0.000
  WS02006245              0.01      1.15      0  03:11       0.000     0.000
  WS02006247              0.01      1.01      0  03:11       0.000     0.000
  WS02006248              0.01     25.18      0  03:11       0.000     0.000
  WS02006249              0.85    111.93      0  03:11       0.206     0.000
  WS02006252              0.01    245.63      0  00:00       0.000     0.000
  WS02006256              1.20    293.19      0  00:00       0.411     0.000
  YS02001580              0.01     89.54      0  01:44       0.000     0.000
  YS02001586              0.51    329.81      0  01:54       0.317     0.000
  YS02001590              0.01     91.80      0  01:42       0.000     0.000
  YS02001593              0.01      0.70      0  01:44       0.000     0.000
  YS02001596              0.01      0.68      0  01:44       0.000     0.000
  YS02001600              0.01      5.21      0  01:44       0.000     0.000
  YS02001601              0.70   1105.99      0  01:52       1.359     0.000
  YS02001602              0.60     62.00      0  02:16       0.120     0.000
  YS02001605              0.01      0.33      0  02:18       0.000     0.000
  YS02001610              0.51    604.52      0  01:53       0.623     0.000
  YS02001616              0.01      1.52      0  02:18       0.000     0.000
  YS02001625              0.48   1227.22      0  01:52       1.054     0.000
  YS02001629              0.09    228.53      0  01:49       0.042     0.000
  YS02001633              0.01      3.88      0  01:46       0.000     0.000
  YS02001644              0.16    710.63      0  01:49       0.224     0.000
  YS02001649              0.01     29.89      0  01:48       0.000     0.000
  YS02001655              0.01     74.68      0  01:48       0.000     0.000
  YS02001658              0.01    280.45      0  01:48       0.000     0.000
  YS02001748              0.01    192.58      0  01:48       0.000     0.000
  YS02001751              0.01    258.15      0  01:48       0.000     0.000
  YS02001754              0.01    322.31      0  01:47       0.000     0.000
  YS02001765              0.01     79.52      0  01:47       0.000     0.000
  YS02001767              0.01     66.60      0  01:47       0.000     0.000
  YS02001770              0.01    242.10      0  01:47       0.001     0.000
  YS02001774              0.01     90.44      0  01:47       0.000     0.000
  YS02001779              0.14    436.09      0  01:47       0.093     0.000
  YS02001882              0.01     10.11      0  01:45       0.000     0.000
  YS02001890              0.15    246.39      0  01:50       0.077     0.000
  YS02001898              0.01     37.83      0  01:45       0.000     0.000
  YS02001901              0.01     33.27      0  01:45       0.000     0.000
  YS02001907              0.36   1670.08      0  01:51       1.155     0.000
  YS02001915              0.01    206.14      0  01:45       0.000     0.000
  YS02001918              0.01    172.15      0  01:47       0.003     0.000
  YS02001923              0.01    162.18      0  01:47       0.000     0.000
  YS02001926              0.01    739.64      0  01:47       0.003     0.000
  YS02001929              0.01    466.76      0  01:47       0.002     0.000
  YS02163601              0.01      6.17      0  01:46       0.000     0.000
  
  
  **********************
  Storage Volume Summary
  **********************
  
  ------------------------------------------------------------------------------------------------
                         Average    Avg   Evap  Exfil     Maximum    Max    Time of Max    Maximum
                          Volume   Pcnt   Pcnt   Pcnt      Volume   Pcnt     Occurrence    Outflow
  Storage Unit           1000 m³   Full   Loss   Loss     1000 m³   Full    days hr:min        LPS
  ------------------------------------------------------------------------------------------------
  CC-storage               2.333   36.4    0.0    0.0       4.441   69.3       0  02:23    1783.53
  JK-storage               0.079   27.1    0.0    0.0       0.212   72.6       0  01:48    2300.00
  
  
  ***********************
  Outfall Loading Summary
  ***********************
  
  -----------------------------------------------------------
                         Flow       Avg       Max       Total
                         Freq      Flow      Flow      Volume
  Outfall Node           Pcnt       LPS       LPS    10^6 ltr
  -----------------------------------------------------------
  CC-1                  40.48    683.00    683.00       4.765
  CC-2                  33.97    683.00    683.00       3.711
  JK-1                   9.17   1000.00   1000.00       1.576
  JK-2                   9.37   1000.00   1000.00       1.398
  WSC                   99.94    216.02    554.98       4.672
  -----------------------------------------------------------
  System                38.59   3582.02   3918.54      16.122
  
  
  ********************
  Link Flow Summary
  ********************
  
  -----------------------------------------------------------------------------
                                 Maximum  Time of Max   Maximum    Max/    Max/
                                  |Flow|   Occurrence   |Veloc|    Full    Full
  Link                 Type          LPS  days hr:min     m/sec    Flow   Depth
  -----------------------------------------------------------------------------
  1                    CONDUIT    554.98     0  02:39      2.83    0.19    0.30
  WS02003060WS02003069 CONDUIT    553.38     0  02:38      1.64    0.22    0.34
  WS02003066WSF200     CONDUIT    536.86     0  02:37      2.85    0.09    0.22
  WS02003067WS02003066 CONDUIT    536.82     0  02:37      1.21    0.17    0.42
  WS02003069WS02003072 CONDUIT    553.51     0  02:38      1.37    0.27    0.39
  WS02003072WS02003073 CONDUIT    553.36     0  02:39      1.44    1.20    0.37
  WS02004401WS02004402 CONDUIT    537.73     0  02:34      1.08    0.65    0.86
  WS02004402WS02004403 CONDUIT    537.64     0  02:35      1.09    0.77    0.88
  WS02004403WS02004404 CONDUIT    537.51     0  02:35      1.05    0.39    0.93
  WS02004404WS02004405 CONDUIT    537.50     0  02:35      1.24    5.27    0.96
  WS02004405WS02004406 CONDUIT    537.43     0  02:35      1.20    1.06    0.96
  WS02004406WS02004407 CONDUIT    537.41     0  02:35      1.04    0.24    0.63
  WS02004407WS02004409 CONDUIT    537.30     0  02:35      1.50    0.19    0.48
  WS02004409WS02004410 CONDUIT    537.25     0  02:36      0.98    0.69    0.67
  WS02004410WS02004411 CONDUIT    537.06     0  02:36      0.94    0.73    0.69
  WS02004411WS02004412 CONDUIT    537.00     0  02:36      0.92    0.76    0.69
  WS02004412WS02004413 CONDUIT    536.97     0  02:36      0.82    0.36    0.78
  WS02004413WS02003067 CONDUIT    536.78     0  02:37      1.11    0.23    0.59
  WS02006109WS02006110 CONDUIT    590.41     0  03:11      1.17    1.14    1.00
  WS02006110WS02006113 CONDUIT    605.71     0  03:11      1.44    0.55    0.79
  WS02006111WS02006112 CONDUIT    555.09     0  03:11      1.87    0.26    0.68
  WS02006112WS02006115 CONDUIT    571.13     0  03:11      0.81    0.34    0.87
  WS02006113WS02006111 CONDUIT    576.54     0  03:11      2.50    0.69    0.47
  WS02006115WS02006116 CONDUIT    552.64     0  03:12      1.09    0.71    0.76
  WS02006116WS02004401 CONDUIT    545.01     0  03:12      1.07    0.75    0.84
  WS02006228WS02006109 CONDUIT    584.25     0  03:11      1.16    2.55    1.00
  WS02006229WS02006228 CONDUIT    576.10     0  03:11      1.15    1.91    1.00
  WS02006230WS02006229 CONDUIT    574.33     0  03:11      1.49   12.78    1.00
  WS02006231WS02006230 CONDUIT    579.70     0  02:55      1.58    8.79    1.00
  WS02006232WS02006231 CONDUIT    584.78     0  02:55      1.52    1.23    1.00
  WS02006234WS02006232 CONDUIT    583.50     0  02:55      1.52    1.18    1.00
  WS02006235WS02006234 CONDUIT    575.93     0  02:55      1.50    6.08    1.00
  WS02006238WS02006235 CONDUIT    424.31     0  01:55      1.45    0.95    1.00
  WS02006239WS02006238 CONDUIT    424.32     0  01:55      1.10    1.36    1.00
  WS02006240WS02006239 CONDUIT    424.30     0  02:00      1.24    1.34    1.00
  WS02006242WS02006240 CONDUIT    422.77     0  02:00      1.13    1.68    1.00
  WS02006243WS02006242 CONDUIT    422.87     0  02:00      1.40    0.90    1.00
  WS02006245WS02006243 CONDUIT    424.06     0  02:00      1.45    1.25    1.00
  WS02006247WS02006245 CONDUIT    424.76     0  02:00      1.43    3.37    1.00
  WS02006248WS02006247 CONDUIT    425.17     0  02:00      1.44    0.93    1.00
  WS02006249WS02006248 CONDUIT    426.53     0  02:00      1.36    2.34    1.00
  WS02006251WS02006249 CONDUIT    459.02     0  00:00      1.99    1.32    1.00
  WS02006252WS02006251 CONDUIT    407.49     0  01:54     17.87    1.50    1.00
  WS02006256WS02006235 CONDUIT    288.91     0  00:00      4.23    3.06    1.00
  WSF200WS02003060     CONDUIT    536.94     0  02:37      2.06    0.12    0.28
  YS02001580YS02001583 CONDUIT    126.53     0  01:44      0.79    0.49    1.00
  YS02001583YS02001586 CONDUIT    179.53     0  01:44      0.77    0.27    1.00
  YS02001586YS02001590 CONDUIT    317.90     0  02:14      1.26    0.56    1.00
  YS02001590YS02001593 CONDUIT    317.96     0  01:59      1.12    2.00    1.00
  YS02001593YS02001596 CONDUIT    317.98     0  02:07      1.74    0.50    1.00
  YS02001596YS02001600 CONDUIT    318.08     0  02:07      1.22    0.62    1.00
  YS02001600YS02001601 CONDUIT    317.93     0  01:59      1.12    0.55    1.00
  YS02001601YS02001602 CONDUIT    547.04     0  01:44      1.93    1.98    1.00
  YS02001602YS02001605 CONDUIT    547.20     0  01:44      1.94   11.58    1.00
  YS02001605YS02001607 CONDUIT    546.87     0  01:44      1.93    3.00    1.00
  YS02001607YS02001610 CONDUIT    540.15     0  01:44      0.69    0.51    1.00
  YS02001610YS02001613 CONDUIT    546.13     0  01:44      0.70    0.63    1.00
  YS02001613YS02001616 CONDUIT    553.13     0  01:44      0.71    0.47    1.00
  YS02001616YS02001619 CONDUIT    518.90     0  01:44      0.68    0.90    1.00
  YS02001619YS02001622 CONDUIT    930.63     0  01:46      1.23    1.37    1.00
  YS02001622YS02001625 CONDUIT    930.40     0  01:46      1.18    0.50    1.00
  YS02001625YS02001629 CONDUIT    930.39     0  01:46      1.18    0.44    1.00
  YS02001629YS02163301 CONDUIT    930.69     0  01:46      1.18    1.15    1.00
  YS02001633YS02163601 CONDUIT   1430.91     0  01:46      1.82    1.50    1.00
  YS02001641YS02001644 CONDUIT   1429.44     0  01:46      1.82    4.62    1.00
  YS02001644YS02001647 CONDUIT   1889.28     0  01:46      2.42    1.11    1.00
  YS02001647YS02001649 CONDUIT   1883.69     0  01:46      2.40    0.99    1.00
  YS02001649YS02001757 CONDUIT   2184.82     0  01:46      2.78    1.33    1.00
  YS02001652YS02001649 CONDUIT    939.05     0  01:49      1.20    0.47    1.00
  YS02001655YS02001652 CONDUIT    939.12     0  01:49      1.42    0.46    1.00
  YS02001658YS02001655 CONDUIT    939.55     0  01:49      1.97    0.40    1.00
  YS02001661YS02001658 CONDUIT    938.71     0  01:49      2.41    0.37    1.00
  YS02001664YS02001661 CONDUIT    920.20     0  01:49      2.47    0.29    0.92
  YS02001745YS02001748 CONDUIT    636.38     0  01:49      2.31    0.24    1.00
  YS02001748YS02001751 CONDUIT    639.20     0  01:49      1.81    0.32    1.00
  YS02001751YS02001754 CONDUIT    640.29     0  01:49      1.53    0.31    1.00
  YS02001754YS02001757 CONDUIT    642.17     0  01:49      0.82    0.26    1.00
  YS02001757CaochengTiaoxuchi CONDUIT   3551.81     0  01:49      4.73    1.54    1.00
  YS02001759YS02001757 CONDUIT   1482.05     0  01:48      1.89    1.05    1.00
  YS02001762YS02001759 CONDUIT    855.18     0  01:48      1.09    0.99    1.00
  YS02001765YS02001762 CONDUIT    855.51     0  01:48      1.09    0.80    1.00
  YS02001767YS02001765 CONDUIT    854.96     0  01:48      1.09    1.08    1.00
  YS02001770YS02001767 CONDUIT    854.31     0  01:48      1.09    3.38    1.00
  YS02001774YS02001770 CONDUIT    474.28     0  01:47      0.60    0.30    1.00
  YS02001779YS02001774 CONDUIT    480.77     0  01:47      0.62    0.24    1.00
  YS02001783YS02001784 CONDUIT   1163.51     0  01:48      2.31    1.60    1.00
  YS02001784YS02001785 CONDUIT   1164.44     0  01:48      2.32    2.71    1.00
  YS02001786YS02001788 CONDUIT   1164.75     0  01:49      2.48    2.24    0.89
  YS02001788YS02001790 CONDUIT   1177.49     0  01:47      2.72    0.87    0.84
  YS02001790YS02001791 CONDUIT   1285.64     0  01:49      3.43    1.40    0.70
  YS02001791YS02001793 CONDUIT   1256.87     0  01:49      6.75    0.54    0.44
  YS02001793JiankangQianchi CONDUIT   1233.60     0  01:53      2.46    0.10    0.65
  YS02001882YS02001884 CONDUIT     55.13     0  01:45      0.14    0.06    1.00
  YS02001884YS02001887 CONDUIT    104.51     0  01:45      0.13    0.14    1.00
  YS02001887YS02001890 CONDUIT    761.60     0  01:50      0.97    1.30    1.00
  YS02001890YS02001895 CONDUIT    518.52     0  01:55      0.66    0.24    1.00
  YS02001895YS02001898 CONDUIT    518.23     0  01:55      0.66    0.90    1.00
  YS02001898YS02001901 CONDUIT    518.38     0  01:55      0.66    0.33    1.00
  YS02001901YS02001904 CONDUIT    517.86     0  01:55      0.66    0.80    1.00
  YS02001904YS02001907 CONDUIT    518.42     0  01:54      0.66    0.18    1.00
  YS02001907YS02006553 CONDUIT    795.69     0  02:09      0.88    0.94    1.00
  YS02001910YS02001907 CONDUIT   1310.11     0  01:51      1.67    0.74    1.00
  YS02001915YS02001910 CONDUIT   1310.08     0  01:51      1.67    0.65    1.00
  YS02001918YS02001915 CONDUIT    518.90     0  01:46      0.66    0.29    1.00
  YS02001920YS02001918 CONDUIT    496.49     0  01:47      0.64    0.48    1.00
  YS02001923YS02001920 CONDUIT    499.00     0  01:47      0.71    0.22    1.00
  YS02001926YS02001923 CONDUIT    604.77     0  01:46      1.01    0.86    1.00
  YS02001929YS02001926 CONDUIT    486.90     0  01:47      1.18    0.23    1.00
  YS02006553YS02006556 CONDUIT    795.32     0  02:09      1.01    0.68    1.00
  YS02006556YS02006558 CONDUIT    796.49     0  02:09      1.01    0.63    1.00
  YS02006558YS02006561 CONDUIT   1166.37     0  01:46      4.13    2.58    1.00
  YS02006561YS02001783 CONDUIT   1163.73     0  01:48      2.32    0.60    1.00
  YS02163301YS02001633 CONDUIT    931.04     0  01:46      1.19    0.88    1.00
  YS02163601YS02164001 CONDUIT   1430.53     0  01:46      1.82    1.27    1.00
  YS02164001YS02001641 CONDUIT   1429.74     0  01:46      1.82    1.95    1.00
  CC-R1                PUMP       683.00     0  00:00              1.00
  CC-R2                PUMP       683.00     0  00:00              1.00
  CC-S1                PUMP       200.00     0  00:00              1.00
  CC-S2                PUMP       200.00     0  00:00              1.00
  JK-R1                PUMP      1000.00     0  00:00              1.00
  JK-R2                PUMP      1000.00     0  00:00              1.00
  JK-S                 PUMP       300.00     0  00:00              1.00
  
  
  ***************************
  Flow Classification Summary
  ***************************
  
  -------------------------------------------------------------------------------------
                      Adjusted    ---------- Fraction of Time in Flow Class ---------- 
                       /Actual         Up    Down  Sub   Sup   Up    Down  Norm  Inlet 
  Conduit               Length    Dry  Dry   Dry   Crit  Crit  Crit  Crit  Ltd   Ctrl  
  -------------------------------------------------------------------------------------
  1                       1.00   0.00  0.00  0.00  0.00  1.00  0.00  0.00  0.42  0.00
  WS02003060WS02003069    1.00   0.00  0.00  0.00  0.98  0.02  0.00  0.00  0.73  0.00
  WS02003066WSF200        1.00   0.08  0.00  0.00  0.00  0.92  0.00  0.00  0.81  0.00
  WS02003067WS02003066    1.00   0.07  0.01  0.00  0.93  0.00  0.00  0.00  0.00  0.00
  WS02003069WS02003072    1.00   0.00  0.00  0.00  0.99  0.01  0.00  0.00  0.73  0.00
  WS02003072WS02003073    1.00   0.00  0.00  0.00  0.00  0.00  0.00  1.00  0.00  0.00
  WS02004401WS02004402    1.00   0.02  0.00  0.00  0.98  0.00  0.00  0.00  0.00  0.00
  WS02004402WS02004403    1.00   0.02  0.00  0.00  0.97  0.00  0.00  0.00  0.00  0.00
  WS02004403WS02004404    1.00   0.00  0.03  0.00  0.97  0.00  0.00  0.00  0.00  0.00
  WS02004404WS02004405    1.00   0.00  0.00  0.00  1.00  0.00  0.00  0.00  0.01  0.00
  WS02004405WS02004406    1.00   0.00  0.00  0.00  1.00  0.00  0.00  0.00  0.00  0.00
  WS02004406WS02004407    1.00   0.00  0.04  0.00  0.96  0.00  0.00  0.00  0.00  0.00
  WS02004407WS02004409    1.00   0.04  0.00  0.00  0.95  0.01  0.00  0.00  0.95  0.00
  WS02004409WS02004410    1.00   0.04  0.00  0.00  0.96  0.00  0.00  0.00  0.00  0.00
  WS02004410WS02004411    1.00   0.04  0.00  0.00  0.96  0.00  0.00  0.00  0.00  0.00
  WS02004411WS02004412    1.00   0.04  0.00  0.00  0.96  0.00  0.00  0.00  0.00  0.00
  WS02004412WS02004413    1.00   0.04  0.00  0.00  0.95  0.00  0.00  0.00  0.01  0.00
  WS02004413WS02003067    1.00   0.05  0.02  0.00  0.00  0.00  0.93  0.00  0.00  0.00
  WS02006109WS02006110    1.00   0.00  0.01  0.00  0.98  0.00  0.01  0.00  0.00  0.00
  WS02006110WS02006113    1.00   0.01  0.01  0.00  0.98  0.00  0.00  0.00  0.00  0.00
  WS02006111WS02006112    1.00   0.02  0.00  0.00  0.98  0.00  0.00  0.00  0.98  0.00
  WS02006112WS02006115    1.00   0.02  0.00  0.00  0.97  0.00  0.00  0.00  0.00  0.00
  WS02006113WS02006111    1.00   0.02  0.00  0.00  0.00  0.98  0.00  0.00  0.11  0.00
  WS02006115WS02006116    1.00   0.02  0.00  0.00  0.97  0.00  0.00  0.01  0.00  0.00
  WS02006116WS02004401    1.00   0.02  0.00  0.00  0.98  0.00  0.00  0.00  0.00  0.00
  WS02006228WS02006109    1.00   0.00  0.00  0.00  1.00  0.00  0.00  0.00  0.00  0.00
  WS02006229WS02006228    1.00   0.00  0.00  0.00  0.99  0.00  0.00  0.01  0.00  0.00
  WS02006230WS02006229    1.00   0.00  0.00  0.00  0.99  0.00  0.00  0.01  0.04  0.00
  WS02006231WS02006230    1.00   0.00  0.00  0.00  0.26  0.00  0.74  0.00  0.00  0.00
  WS02006232WS02006231    1.00   0.00  0.00  0.00  0.99  0.00  0.01  0.00  0.00  0.00
  WS02006234WS02006232    1.00   0.00  0.00  0.00  1.00  0.00  0.00  0.00  0.04  0.00
  WS02006235WS02006234    1.00   0.00  0.00  0.00  0.90  0.00  0.10  0.00  0.00  0.00
  WS02006238WS02006235    1.00   0.00  0.00  0.00  1.00  0.00  0.00  0.00  0.01  0.00
  WS02006239WS02006238    1.00   0.00  0.00  0.00  1.00  0.00  0.00  0.00  0.14  0.00
  WS02006240WS02006239    1.00   0.00  0.00  0.00  0.65  0.00  0.00  0.35  0.04  0.00
  WS02006242WS02006240    1.00   0.00  0.00  0.00  0.99  0.00  0.01  0.00  0.00  0.00
  WS02006243WS02006242    1.00   0.00  0.00  0.00  0.99  0.00  0.00  0.00  0.66  0.00
  WS02006245WS02006243    1.00   0.00  0.00  0.00  0.79  0.00  0.00  0.21  0.00  0.00
  WS02006247WS02006245    1.00   0.00  0.00  0.00  0.96  0.00  0.00  0.04  0.00  0.00
  WS02006248WS02006247    1.00   0.00  0.00  0.00  0.98  0.00  0.00  0.02  0.62  0.00
  WS02006249WS02006248    1.00   0.00  0.00  0.00  0.38  0.00  0.62  0.00  0.00  0.00
  WS02006251WS02006249    1.00   0.00  0.00  0.00  0.99  0.01  0.00  0.00  0.62  0.00
  WS02006252WS02006251    1.00   0.00  0.47  0.00  0.11  0.00  0.42  0.00  0.00  0.00
  WS02006256WS02006235    1.00   0.00  0.00  0.00  0.97  0.03  0.00  0.00  0.00  0.00
  WSF200WS02003060        1.00   0.00  0.08  0.00  0.51  0.41  0.00  0.00  0.65  0.00
  YS02001580YS02001583    1.00   0.21  0.59  0.00  0.20  0.00  0.00  0.00  0.68  0.00
  YS02001583YS02001586    1.00   0.42  0.32  0.00  0.25  0.00  0.00  0.00  0.68  0.00
  YS02001586YS02001590    1.00   0.13  0.00  0.00  0.42  0.04  0.00  0.41  0.35  0.00
  YS02001590YS02001593    1.00   0.13  0.01  0.00  0.12  0.00  0.74  0.00  0.00  0.00
  YS02001593YS02001596    1.00   0.13  0.00  0.00  0.14  0.01  0.00  0.72  0.02  0.00
  YS02001596YS02001600    1.00   0.14  0.00  0.00  0.20  0.01  0.00  0.65  0.05  0.00
  YS02001600YS02001601    1.00   0.13  0.01  0.00  0.86  0.00  0.00  0.00  0.60  0.00
  YS02001601YS02001602    1.00   0.13  0.01  0.00  0.87  0.00  0.00  0.00  0.00  0.00
  YS02001602YS02001605    1.00   0.13  0.00  0.00  0.86  0.00  0.00  0.00  0.00  0.00
  YS02001605YS02001607    1.00   0.14  0.00  0.00  0.86  0.00  0.00  0.00  0.00  0.00
  YS02001607YS02001610    1.00   0.13  0.01  0.00  0.86  0.00  0.00  0.00  0.01  0.00
  YS02001610YS02001613    1.00   0.13  0.00  0.00  0.87  0.00  0.00  0.00  0.00  0.00
  YS02001613YS02001616    1.00   0.13  0.00  0.00  0.87  0.00  0.00  0.00  0.00  0.00
  YS02001616YS02001619    1.00   0.13  0.00  0.00  0.87  0.00  0.00  0.00  0.00  0.00
  YS02001619YS02001622    1.00   0.13  0.00  0.00  0.87  0.00  0.00  0.00  0.29  0.00
  YS02001622YS02001625    1.00   0.13  0.00  0.00  0.87  0.00  0.00  0.00  0.04  0.00
  YS02001625YS02001629    1.00   0.13  0.05  0.00  0.17  0.00  0.66  0.00  0.00  0.00
  YS02001629YS02163301    1.00   0.15  0.01  0.00  0.84  0.00  0.00  0.00  0.00  0.00
  YS02001633YS02163601    1.00   0.00  0.01  0.00  0.99  0.00  0.00  0.00  0.15  0.00
  YS02001641YS02001644    1.00   0.00  0.01  0.00  0.99  0.00  0.00  0.00  0.00  0.00
  YS02001644YS02001647    1.00   0.00  0.17  0.00  0.83  0.00  0.00  0.00  0.00  0.00
  YS02001647YS02001649    1.00   0.00  0.17  0.00  0.58  0.25  0.00  0.00  0.56  0.00
  YS02001649YS02001757    1.00   0.00  0.00  0.00  0.76  0.23  0.00  0.00  0.41  0.00
  YS02001652YS02001649    1.00   0.00  0.00  0.00  0.97  0.03  0.00  0.00  0.73  0.00
  YS02001655YS02001652    1.00   0.00  0.00  0.00  0.20  0.01  0.00  0.79  0.06  0.00
  YS02001658YS02001655    1.00   0.00  0.14  0.00  0.66  0.20  0.00  0.00  0.68  0.00
  YS02001661YS02001658    1.00   0.14  0.00  0.00  0.50  0.36  0.00  0.00  0.71  0.00
  YS02001664YS02001661    1.00   0.13  0.00  0.00  0.76  0.11  0.00  0.00  0.86  0.00
  YS02001745YS02001748    1.00   0.00  0.00  0.00  0.10  0.01  0.00  0.89  0.05  0.00
  YS02001748YS02001751    1.00   0.00  0.00  0.00  0.83  0.17  0.00  0.00  0.78  0.00
  YS02001751YS02001754    1.00   0.00  0.00  0.00  0.19  0.00  0.00  0.81  0.05  0.00
  YS02001754YS02001757    1.00   0.00  0.00  0.00  1.00  0.00  0.00  0.00  0.79  0.00
  YS02001757CaochengTiaoxuchi    1.00   0.00  0.00  0.00  0.97  0.03  0.00  0.00  0.73  0.00
  YS02001759YS02001757    1.00   0.00  0.00  0.00  1.00  0.00  0.00  0.00  0.60  0.00
  YS02001762YS02001759    1.00   0.00  0.00  0.00  1.00  0.00  0.00  0.00  0.04  0.00
  YS02001765YS02001762    1.00   0.00  0.00  0.00  1.00  0.00  0.00  0.00  0.71  0.00
  YS02001767YS02001765    1.00   0.00  0.00  0.00  1.00  0.00  0.00  0.00  0.00  0.00
  YS02001770YS02001767    1.00   0.00  0.00  0.00  1.00  0.00  0.00  0.00  0.00  0.00
  YS02001774YS02001770    1.00   0.00  0.13  0.00  0.70  0.00  0.17  0.00  0.03  0.00
  YS02001779YS02001774    1.00   0.00  0.00  0.00  1.00  0.00  0.00  0.00  0.77  0.00
  YS02001783YS02001784    1.00   0.00  0.18  0.00  0.82  0.00  0.00  0.00  0.56  0.00
  YS02001784YS02001785    1.00   0.00  0.00  0.00  1.00  0.00  0.00  0.00  0.16  0.00
  YS02001786YS02001788    1.00   0.00  0.00  0.00  0.79  0.21  0.00  0.00  0.00  0.00
  YS02001788YS02001790    1.00   0.00  0.00  0.00  0.20  0.80  0.00  0.00  0.80  0.00
  YS02001790YS02001791    1.00   0.00  0.00  0.00  0.01  0.99  0.00  0.00  0.16  0.00
  YS02001791YS02001793    1.00   0.00  0.00  0.00  0.00  1.00  0.00  0.00  0.01  0.00
  YS02001793JiankangQianchi    1.00   0.00  0.00  0.00  0.98  0.02  0.00  0.00  0.96  0.00
  YS02001882YS02001884    1.00   0.15  0.01  0.00  0.84  0.00  0.00  0.00  0.00  0.00
  YS02001884YS02001887    1.00   0.06  0.05  0.00  0.89  0.00  0.00  0.00  0.00  0.00
  YS02001887YS02001890    1.00   0.00  0.00  0.00  0.97  0.00  0.03  0.00  0.00  0.00
  YS02001890YS02001895    1.00   0.00  0.16  0.00  0.84  0.00  0.00  0.00  0.00  0.00
  YS02001895YS02001898    1.00   0.16  0.00  0.00  0.82  0.00  0.02  0.00  0.00  0.00
  YS02001898YS02001901    1.00   0.16  0.00  0.00  0.83  0.00  0.00  0.00  0.01  0.00
  YS02001901YS02001904    1.00   0.16  0.00  0.00  0.84  0.00  0.00  0.00  0.00  0.00
  YS02001904YS02001907    1.00   0.00  0.16  0.00  0.84  0.00  0.00  0.00  0.00  0.00
  YS02001907YS02006553    1.00   0.00  0.02  0.00  0.98  0.00  0.00  0.00  0.00  0.00
  YS02001910YS02001907    1.00   0.00  0.00  0.00  0.97  0.00  0.00  0.03  0.12  0.00
  YS02001915YS02001910    1.00   0.00  0.00  0.00  0.97  0.03  0.00  0.00  0.15  0.00
  YS02001918YS02001915    1.00   0.00  0.01  0.00  0.98  0.02  0.00  0.00  0.74  0.00
  YS02001920YS02001918    1.00   0.00  0.01  0.00  0.99  0.00  0.00  0.00  0.00  0.00
  YS02001923YS02001920    1.00   0.00  0.00  0.00  1.00  0.00  0.00  0.00  0.92  0.00
  YS02001926YS02001923    1.00   0.00  0.07  0.00  0.06  0.00  0.86  0.00  0.00  0.00
  YS02001929YS02001926    1.00   0.00  0.13  0.00  0.87  0.00  0.00  0.00  0.82  0.00
  YS02006553YS02006556    1.00   0.01  0.00  0.00  0.99  0.00  0.00  0.00  0.03  0.00
  YS02006556YS02006558    1.00   0.00  0.00  0.00  1.00  0.00  0.00  0.00  0.00  0.00
  YS02006558YS02006561    1.00   0.18  0.00  0.00  0.06  0.76  0.00  0.00  0.19  0.00
  YS02006561YS02001783    1.00   0.18  0.00  0.00  0.09  0.73  0.00  0.00  0.69  0.00
  YS02163301YS02001633    1.00   0.00  0.15  0.00  0.85  0.00  0.00  0.00  0.00  0.00
  YS02163601YS02164001    1.00   0.00  0.08  0.00  0.92  0.00  0.00  0.00  0.00  0.00
  YS02164001YS02001641    1.00   0.01  0.07  0.00  0.92  0.00  0.00  0.00  0.05  0.00
  
  
  *************************
  Conduit Surcharge Summary
  *************************
  
  ----------------------------------------------------------------------------
                                                           Hours        Hours 
                         --------- Hours Full --------   Above Full   Capacity
  Conduit                Both Ends  Upstream  Dnstream   Normal Flow   Limited
  ----------------------------------------------------------------------------
  WS02003072WS02003073        0.01      0.01      0.01      1.17         0.01
  WS02004404WS02004405        0.01      0.01      0.01      2.41         0.01
  WS02004405WS02004406        0.01      0.01      0.01      0.67         0.01
  WS02006109WS02006110        0.71      0.71      2.07      0.79         0.01
  WS02006110WS02006113        0.01      0.01      2.05      0.01         0.01
  WS02006111WS02006112        0.01      0.01      2.12      0.01         0.01
  WS02006112WS02006115        0.01      0.01      0.75      0.01         0.01
  WS02006228WS02006109        2.04      2.07      2.04      2.17         2.04
  WS02006229WS02006228        2.03      2.04      2.03      2.11         2.02
  WS02006230WS02006229        2.09      2.11      2.09      2.91         2.09
  WS02006231WS02006230        0.72      0.72      0.88      2.60         0.01
  WS02006232WS02006231        0.82      0.82      2.08      0.89         0.01
  WS02006234WS02006232        1.98      1.98      2.08      0.87         0.87
  WS02006235WS02006234        1.25      1.25      2.03      2.51         0.02
  WS02006238WS02006235        2.05      2.05      2.08      0.01         0.01
  WS02006239WS02006238        2.04      2.05      2.07      2.05         1.86
  WS02006240WS02006239        2.02      2.03      2.02      2.05         1.76
  WS02006242WS02006240        2.03      2.03      2.05      2.13         0.01
  WS02006243WS02006242        2.03      2.03      2.04      0.01         0.05
  WS02006245WS02006243        2.02      2.02      2.02      1.34         1.36
  WS02006247WS02006245        2.02      2.02      2.02      2.29         2.01
  WS02006248WS02006247        2.02      2.02      2.02      0.01         0.05
  WS02006249WS02006248        2.01      2.01      2.01      2.27         0.01
  WS02006251WS02006249        2.01      2.01      2.01      2.11         1.93
  WS02006252WS02006251        2.17      2.17      2.21      2.17         0.01
  WS02006256WS02006235        2.50      2.54      6.92      1.26         0.01
  YS02001580YS02001583        0.63      0.63      0.69      0.01         0.01
  YS02001583YS02001586        0.64      0.64      0.78      0.01         0.01
  YS02001586YS02001590        0.79      0.79      0.86      0.01         0.01
  YS02001590YS02001593        0.86      0.86      0.88      0.92         0.01
  YS02001593YS02001596        0.87      0.87      0.97      0.01         0.01
  YS02001596YS02001600        1.01      1.01      1.12      0.01         0.01
  YS02001600YS02001601        1.19      1.19      1.51      0.01         0.01
  YS02001601YS02001602        1.40      1.40      1.54      1.14         0.01
  YS02001602YS02001605        1.34      1.34      1.40      2.24         0.01
  YS02001605YS02001607        1.28      1.34      1.28      1.48         1.28
  YS02001607YS02001610        0.84      0.84      0.86      0.01         0.01
  YS02001610YS02001613        0.83      0.83      0.86      0.01         0.01
  YS02001613YS02001616        0.79      0.79      0.83      0.01         0.01
  YS02001616YS02001619        0.77      0.77      0.79      0.01         0.02
  YS02001619YS02001622        0.77      0.77      0.77      0.87         0.74
  YS02001622YS02001625        0.77      0.77      0.95      0.01         0.01
  YS02001625YS02001629        0.72      0.72      0.95      0.01         0.01
  YS02001629YS02163301        0.95      0.95      0.95      0.19         0.18
  YS02001633YS02163601        0.97      0.97      1.00      0.40         0.38
  YS02001641YS02001644        0.89      0.92      0.89      1.57         0.87
  YS02001644YS02001647        0.67      0.67      0.89      0.04         0.01
  YS02001647YS02001649        0.67      0.67      0.80      0.01         0.01
  YS02001649YS02001757        0.80      0.80      0.87      0.07         0.12
  YS02001652YS02001649        0.61      0.61      0.80      0.01         0.01
  YS02001655YS02001652        0.39      0.39      0.58      0.01         0.01
  YS02001658YS02001655        0.19      0.19      0.39      0.01         0.01
  YS02001661YS02001658        0.02      0.02      0.19      0.01         0.01
  YS02001664YS02001661        0.01      0.01      0.02      0.01         0.01
  YS02001745YS02001748        0.01      0.01      0.09      0.01         0.01
  YS02001748YS02001751        0.17      0.17      0.27      0.01         0.01
  YS02001751YS02001754        0.27      0.27      0.47      0.01         0.01
  YS02001754YS02001757        0.52      0.52      0.87      0.01         0.01
  YS02001757CaochengTiaoxuchi        0.78      0.87      1.66      0.40         0.28
  YS02001759YS02001757        0.77      0.77      0.87      0.01         0.03
  YS02001762YS02001759        0.73      0.73      0.77      0.01         0.02
  YS02001765YS02001762        0.68      0.68      0.73      0.01         0.01
  YS02001767YS02001765        0.64      0.64      0.68      0.01         0.04
  YS02001770YS02001767        0.63      0.64      0.64      0.57         0.46
  YS02001774YS02001770        0.60      0.60      0.71      0.01         0.01
  YS02001779YS02001774        0.45      0.45      0.71      0.01         0.01
  YS02001783YS02001784        0.54      0.56      0.54      0.71         0.54
  YS02001784YS02001785        0.43      0.54      0.43      0.95         0.43
  YS02001786YS02001788        0.01      0.43      0.01      0.80         0.01
  YS02001790YS02001791        0.01      0.01      0.01      0.53         0.01
  YS02001793JiankangQianchi        0.01      0.01      6.60      0.01         0.01
  YS02001882YS02001884        0.51      0.51      0.52      0.01         0.01
  YS02001884YS02001887        0.54      0.54      0.56      0.01         0.01
  YS02001887YS02001890        0.57      0.57      0.58      0.11         0.01
  YS02001890YS02001895        0.50      0.50      0.60      0.01         0.01
  YS02001895YS02001898        0.49      0.49      0.50      0.01         0.01
  YS02001898YS02001901        0.50      0.50      0.54      0.01         0.01
  YS02001901YS02001904        0.53      0.53      0.54      0.01         0.01
  YS02001904YS02001907        0.53      0.53      0.79      0.01         0.01
  YS02001907YS02006553        0.96      0.96      1.03      0.01         0.01
  YS02001910YS02001907        0.60      0.60      0.77      0.01         0.01
  YS02001915YS02001910        0.51      0.51      0.60      0.01         0.01
  YS02001918YS02001915        0.42      0.42      0.51      0.01         0.01
  YS02001920YS02001918        0.42      0.42      0.43      0.01         0.01
  YS02001923YS02001920        0.37      0.37      0.43      0.01         0.01
  YS02001926YS02001923        0.06      0.06      0.10      0.01         0.01
  YS02001929YS02001926        0.01      0.01      0.10      0.01         0.01
  YS02006553YS02006556        0.68      0.68      0.79      0.01         0.01
  YS02006556YS02006558        0.74      0.74      0.81      0.01         0.01
  YS02006558YS02006561        0.46      0.67      0.46      0.90         0.46
  YS02006561YS02001783        0.38      0.38      0.56      0.01         0.01
  YS02163301YS02001633        0.95      0.95      0.99      0.01         0.01
  YS02163601YS02164001        0.92      0.92      1.00      0.05         0.01
  YS02164001YS02001641        0.92      0.92      0.92      0.78         0.70
  
  
  ***************
  Pumping Summary
  ***************
  
  ---------------------------------------------------------------------------------------------------------
                                                  Min       Avg       Max     Total     Power    % Time Off
                        Percent   Number of      Flow      Flow      Flow    Volume     Usage    Pump Curve
  Pump                 Utilized   Start-Ups       LPS       LPS       LPS  10^6 ltr     Kw-hr    Low   High
  ---------------------------------------------------------------------------------------------------------
  CC-R1                   24.38          28      0.00    683.00    683.00     4.796     87.95    0.0   23.1
  CC-R2                   18.99          26      0.00    683.00    683.00     3.735     67.55    0.0   42.1
  CC-S1                   29.01          19      0.00    200.00    200.00     1.671      9.73    0.0    0.0
  CC-S2                   28.38          24      0.00    200.00    200.00     1.635      9.49    0.0    0.0
  JK-R1                    5.47          14      0.00   1000.00   1000.00     1.574     15.52    0.0    0.0
  JK-R2                    4.86          15      0.00   1000.00   1000.00     1.399     13.36    0.0    0.0
  JK-S                    15.03          39      0.00    300.00    300.00     1.299     22.26    0.0    0.0
  

  Analysis begun on:  Mon Dec 30 10:19:47 2024
  Analysis ended on:  Mon Dec 30 10:19:49 2024
  Total elapsed time: 00:00:02