
  EPA STORM WATER MANAGEMENT MODEL - VERSION 5.2 (Build 5.2.4)
  PYSWMM TOOLKIT API - VERSION v1.0 (2023-11-27)
  ------------------------------------------------------------

  WARNING 04: minimum elevation drop used for Conduit WS02004404WS02004405
  WARNING 03: negative offset ignored for Link YS02001904YS02001907
  
  ****************
  Analysis Options
  ****************
  Flow Units ............... LPS
  Process Models:
    Rainfall/Runoff ........ YES
    RDII ................... NO
    Snowmelt ............... NO
    Groundwater ............ NO
    Flow Routing ........... YES
    Ponding Allowed ........ NO
    Water Quality .......... NO
  Infiltration Method ...... HORTON
  Flow Routing Method ...... DYNWAVE
  Surcharge Method ......... EXTRAN
  Starting Date ............ 08/28/2015 08:00:00
  Ending Date .............. 08/28/2015 16:00:00
  Antecedent Dry Days ...... 8.0
  Report Time Step ......... 00:01:00
  Wet Time Step ............ 00:01:00
  Dry Time Step ............ 00:01:00
  Routing Time Step ........ 30.00 sec
  Variable Time Step ....... YES
  Maximum Trials ........... 8
  Number of Threads ........ 4
  Head Tolerance ........... 0.001500 m
  
  
  **************************        Volume         Depth
  Runoff Quantity Continuity     hectare-m            mm
  **************************     ---------       -------
  Total Precipitation ......         3.195        96.326
  Evaporation Loss .........         0.000         0.000
  Infiltration Loss ........         0.105         3.171
  Surface Runoff ...........         3.058        92.180
  Final Storage ............         0.033         0.997
  Continuity Error (%) .....        -0.022
  
  
  **************************        Volume        Volume
  Flow Routing Continuity        hectare-m      10^6 ltr
  **************************     ---------     ---------
  Dry Weather Inflow .......         0.025         0.251
  Wet Weather Inflow .......         3.057        30.574
  Groundwater Inflow .......         0.000         0.000
  RDII Inflow ..............         0.000         0.000
  External Inflow ..........         0.083         0.834
  External Outflow .........         1.905        19.054
  Flooding Loss ............         1.330        13.297
  Evaporation Loss .........         0.000         0.000
  Exfiltration Loss ........         0.000         0.000
  Initial Stored Volume ....         0.243         2.431
  Final Stored Volume ......         0.181         1.814
  Continuity Error (%) .....        -0.222
  
  
  *************************
  Highest Continuity Errors
  *************************
  Node YS02001884 (5.15%)
  Node YS02001583 (-2.69%)
  Node WS02006256 (-1.93%)
  
  
  ***************************
  Time-Step Critical Elements
  ***************************
  Link WS02006252WS02006251 (27.15%)
  Link WS02006238WS02006235 (20.59%)
  Link WS02004404WS02004405 (15.00%)
  Link YS02001791YS02001793 (11.83%)
  Link WS02006235WS02006234 (7.39%)
  
  
  ********************************
  Highest Flow Instability Indexes
  ********************************
  Link WS02006113WS02006111 (35)
  Link WS02006238WS02006235 (26)
  Link WS02006252WS02006251 (25)
  Link WS02006111WS02006112 (22)
  Link WS02006256WS02006235 (20)
  
  
  *********************************
  Most Frequent Nonconverging Nodes
  *********************************
  Node CC-1 (18.95%)
  Node CC-2 (18.95%)
  Node JK-1 (18.95%)
  Node JK-2 (18.95%)
  Node WSC (18.95%)
  
  
  *************************
  Routing Time Step Summary
  *************************
  Minimum Time Step           :     0.01 sec
  Average Time Step           :     2.54 sec
  Maximum Time Step           :     6.43 sec
  % of Time in Steady State   :     0.00
  Average Iterations per Step :     3.69
  % of Steps Not Converging   :    18.95
  Time Step Frequencies       :
     30.000 - 13.228 sec      :     0.00 %
     13.228 -  5.833 sec      :    12.53 %
      5.833 -  2.572 sec      :    24.79 %
      2.572 -  1.134 sec      :    27.97 %
      1.134 -  0.500 sec      :    34.71 %
  
  
  ***************************
  Subcatchment Runoff Summary
  ***************************
  
  ------------------------------------------------------------------------------------------------------------------------------
                            Total      Total      Total      Total     Imperv       Perv      Total       Total     Peak  Runoff
                           Precip      Runon       Evap      Infil     Runoff     Runoff     Runoff      Runoff   Runoff   Coeff
  Subcatchment                 mm         mm         mm         mm         mm         mm         mm    10^6 ltr      LPS
  ------------------------------------------------------------------------------------------------------------------------------
  sub60                     96.33       0.00       0.00       1.88      83.57       9.68      93.25        1.23   871.34   0.968
  sub61                     96.33       0.00       0.00       2.74      78.83      13.64      92.47        1.70  1213.14   0.960
  sub62                     96.33       0.00       0.00       1.26      87.34       6.45      93.79        2.57  1705.27   0.974
  sub63                     96.33       0.00       0.00       5.07      67.43      22.87      90.30        2.05  1391.47   0.937
  sub64                     96.33       0.00       0.00       2.56      80.68      11.89      92.57        2.22  1409.08   0.961
  sub65                     96.33       0.00       0.00       2.21      82.56      10.31      92.87        2.56  1582.97   0.964
  sub66                     96.33       0.00       0.00       6.32      67.32      21.61      88.93        4.15  2168.21   0.923
  sub67                     96.33       0.00       0.00       1.20      87.39       6.51      93.89        1.75  1297.65   0.975
  sub68                     96.33       0.00       0.00       2.27      81.66      11.22      92.88        2.56  1753.10   0.964
  sub69                     96.33       0.00       0.00       2.05      81.77      12.40      94.17        3.49  2105.06   0.978
  sub70                     96.33       0.00       0.00       6.92      63.41      25.84      89.25        2.58  1217.23   0.927
  sub71                     96.33       0.00       0.00       1.29      87.30       6.42      93.72        2.45  1521.70   0.973
  sub72                     96.33       0.00       0.00       1.15      88.18       5.60      93.78        1.29   747.92   0.974
  
  
  ******************
  Node Depth Summary
  ******************
  
  ---------------------------------------------------------------------------------
                                 Average  Maximum  Maximum  Time of Max    Reported
                                   Depth    Depth      HGL   Occurrence   Max Depth
  Node                 Type       Meters   Meters   Meters  days hr:min      Meters
  ---------------------------------------------------------------------------------
  WS02003060           JUNCTION     0.22     0.38     5.32     0  02:18        0.38
  WS02003066           JUNCTION     0.18     0.30     5.85     0  02:17        0.30
  WS02003067           JUNCTION     0.48     0.70     6.02     0  02:17        0.70
  WS02003069           JUNCTION     0.25     0.43     5.01     0  02:18        0.43
  WS02003072           JUNCTION     0.31     0.50     4.87     0  02:19        0.50
  WS02003073           JUNCTION     0.17     0.30     4.36     0  02:19        0.30
  WS02004401           JUNCTION     0.56     0.85     6.85     0  02:14        0.85
  WS02004402           JUNCTION     0.60     0.88     6.84     0  02:14        0.88
  WS02004403           JUNCTION     0.62     0.89     6.82     0  02:14        0.89
  WS02004404           JUNCTION     0.69     0.96     6.81     0  02:15        0.96
  WS02004405           JUNCTION     0.69     0.96     6.81     0  02:15        0.96
  WS02004406           JUNCTION     0.70     0.96     6.79     0  02:15        0.96
  WS02004407           JUNCTION     0.16     0.30     6.61     0  02:15        0.30
  WS02004409           JUNCTION     0.37     0.67     6.44     0  02:15        0.67
  WS02004410           JUNCTION     0.39     0.68     6.40     0  02:16        0.68
  WS02004411           JUNCTION     0.41     0.69     6.37     0  02:16        0.69
  WS02004412           JUNCTION     0.44     0.70     6.34     0  02:16        0.70
  WS02004413           JUNCTION     0.59     0.86     6.33     0  02:17        0.86
  WS02006109           JUNCTION     0.63     1.38     8.00     0  01:59        1.05
  WS02006110           JUNCTION     0.63     1.48     8.07     0  01:59        0.99
  WS02006111           JUNCTION     0.17     0.29     7.00     0  03:11        0.29
  WS02006112           JUNCTION     0.72     1.06     6.94     0  02:18        1.06
  WS02006113           JUNCTION     0.25     0.47     7.36     0  03:11        0.46
  WS02006115           JUNCTION     0.45     0.75     6.89     0  02:10        0.75
  WS02006116           JUNCTION     0.53     0.83     6.87     0  02:10        0.83
  WS02006228           JUNCTION     0.62     1.28     7.94     0  01:59        1.07
  WS02006229           JUNCTION     0.60     1.26     7.96     0  03:11        1.05
  WS02006230           JUNCTION     0.60     1.36     8.11     0  03:11        1.18
  WS02006231           JUNCTION     0.42     1.14     8.26     0  03:11        1.12
  WS02006232           JUNCTION     0.55     1.74     8.78     0  03:55        1.34
  WS02006234           JUNCTION     0.48     1.69     8.85     0  03:45        1.65
  WS02006235           JUNCTION     0.52     1.91     9.08     0  03:11        1.91
  WS02006238           JUNCTION     0.55     2.01     9.15     0  03:11        2.01
  WS02006239           JUNCTION     0.52     2.03     9.24     0  03:11        2.03
  WS02006240           JUNCTION     0.49     2.10     9.39     0  03:55        1.93
  WS02006242           JUNCTION     0.56     1.55     8.82     0  03:11        1.55
  WS02006243           JUNCTION     0.48     1.48     8.90     0  03:11        1.48
  WS02006245           JUNCTION     0.48     1.48     8.96     0  03:11        1.48
  WS02006247           JUNCTION     0.50     1.39     8.89     0  03:11        1.39
  WS02006248           JUNCTION     0.47     1.10     8.69     0  01:49        1.10
  WS02006249           JUNCTION     0.49     1.09     8.69     0  01:44        1.09
  WS02006251           JUNCTION     0.49     1.50     9.17     0  02:01        1.13
  WS02006252           JUNCTION     0.34     1.50     9.74     0  00:00        0.75
  WS02006256           JUNCTION     1.00     2.35     9.28     0  00:00        2.35
  WSF200               JUNCTION     0.16     0.29     5.52     0  02:17        0.29
  YS02001580           JUNCTION     0.15     1.05     9.59     0  01:55        0.83
  YS02001583           JUNCTION     0.18     1.04     9.53     0  01:55        0.86
  YS02001586           JUNCTION     0.29     1.13     9.30     0  01:55        1.13
  YS02001590           JUNCTION     0.41     1.40     9.26     0  01:55        1.40
  YS02001593           JUNCTION     0.33     1.43     9.29     0  01:55        1.43
  YS02001596           JUNCTION     0.45     1.75     9.17     0  01:55        1.75
  YS02001600           JUNCTION     0.55     1.87     9.00     0  01:55        1.87
  YS02001601           JUNCTION     0.74     2.06     8.90     0  01:54        2.06
  YS02001602           JUNCTION     0.65     1.87     8.77     0  01:59        1.87
  YS02001605           JUNCTION     0.60     1.78     8.68     0  02:29        1.78
  YS02001607           JUNCTION     0.57     1.68     8.52     0  02:20        1.68
  YS02001610           JUNCTION     0.61     1.68     8.48     0  02:00        1.68
  YS02001613           JUNCTION     0.57     1.67     8.51     0  02:17        1.67
  YS02001616           JUNCTION     0.51     1.61     8.52     0  02:10        1.61
  YS02001619           JUNCTION     0.48     1.61     8.54     0  02:10        1.61
  YS02001622           JUNCTION     0.47     1.58     8.49     0  02:13        1.58
  YS02001625           JUNCTION     0.72     1.78     8.38     0  02:00        1.78
  YS02001629           JUNCTION     0.62     1.85     8.40     0  02:02        1.85
  YS02001633           JUNCTION     0.69     2.08     8.53     0  02:13        2.08
  YS02001641           JUNCTION     0.66     1.99     8.43     0  02:02        1.96
  YS02001644           JUNCTION     0.66     1.92     8.35     0  02:02        1.92
  YS02001647           JUNCTION     0.44     1.78     8.39     0  02:13        1.78
  YS02001649           JUNCTION     0.50     2.04     8.43     0  02:13        2.03
  YS02001652           JUNCTION     0.37     1.94     8.53     0  02:13        1.93
  YS02001655           JUNCTION     0.29     1.96     8.81     0  02:46        1.78
  YS02001658           JUNCTION     0.22     1.60     8.74     0  02:13        1.59
  YS02001661           JUNCTION     0.22     1.43     8.83     0  02:13        1.42
  YS02001664           JUNCTION     0.09     1.00     8.93     0  02:13        0.98
  YS02001745           JUNCTION     0.12     1.05     8.56     0  02:13        1.03
  YS02001748           JUNCTION     0.21     1.58     8.66     0  02:05        1.44
  YS02001751           JUNCTION     0.25     1.60     8.48     0  02:13        1.60
  YS02001754           JUNCTION     0.33     1.83     8.44     0  02:13        1.83
  YS02001757           JUNCTION     0.52     2.13     8.40     0  02:13        2.13
  YS02001759           JUNCTION     0.45     2.14     8.51     0  02:13        2.14
  YS02001762           JUNCTION     0.44     2.10     8.50     0  02:13        2.10
  YS02001765           JUNCTION     0.42     2.03     8.48     0  02:13        2.03
  YS02001767           JUNCTION     0.42     1.98     8.47     0  02:13        1.98
  YS02001770           JUNCTION     0.43     1.95     8.44     0  02:10        1.95
  YS02001774           JUNCTION     0.49     2.00     8.42     0  02:10        2.00
  YS02001779           JUNCTION     0.31     1.68     8.37     0  02:01        1.68
  YS02001783           JUNCTION     0.33     1.29     7.43     0  02:01        1.28
  YS02001784           JUNCTION     0.33     1.14     7.21     0  02:13        1.13
  YS02001786           JUNCTION     0.28     0.90     6.93     0  02:13        0.88
  YS02001788           JUNCTION     0.20     0.63     6.60     0  02:11        0.62
  YS02001790           JUNCTION     0.24     0.73     6.38     0  02:11        0.72
  YS02001791           JUNCTION     0.15     0.44     5.91     0  02:11        0.43
  YS02001793           JUNCTION     0.08     0.30     5.13     0  02:12        0.28
  YS02001882           JUNCTION     0.40     1.72     8.44     0  02:13        1.72
  YS02001884           JUNCTION     0.49     1.82     8.44     0  02:13        1.82
  YS02001887           JUNCTION     0.57     1.90     8.44     0  02:13        1.90
  YS02001890           JUNCTION     0.60     1.81     8.32     0  02:00        1.81
  YS02001895           JUNCTION     0.37     1.60     8.35     0  02:20        1.60
  YS02001898           JUNCTION     0.38     1.57     8.31     0  02:20        1.57
  YS02001901           JUNCTION     0.49     1.72     8.33     0  02:20        1.72
  YS02001904           JUNCTION     0.47     1.64     8.27     0  02:29        1.64
  YS02001907           JUNCTION     0.78     1.96     8.25     0  02:01        1.96
  YS02001910           JUNCTION     0.59     2.01     8.52     0  02:16        2.01
  YS02001915           JUNCTION     0.42     2.00     8.72     0  02:11        2.00
  YS02001918           JUNCTION     0.24     1.73     8.80     0  02:02        1.71
  YS02001920           JUNCTION     0.33     1.88     8.88     0  02:02        1.80
  YS02001923           JUNCTION     0.19     1.68     8.94     0  02:02        1.58
  YS02001926           JUNCTION     0.22     1.52     8.97     0  02:02        1.43
  YS02001929           JUNCTION     0.14     1.47     9.17     0  02:02        1.23
  YS02006553           JUNCTION     0.79     1.99     8.28     0  02:13        1.99
  YS02006556           JUNCTION     0.76     2.00     8.32     0  02:13        2.00
  YS02006558           JUNCTION     0.80     2.07     8.34     0  02:13        2.07
  YS02006561           JUNCTION     0.21     1.00     7.66     0  02:01        0.93
  YS02163301           JUNCTION     0.64     1.95     8.46     0  02:13        1.95
  YS02163601           JUNCTION     0.72     2.08     8.48     0  02:02        2.07
  YS02164001           JUNCTION     0.65     2.01     8.47     0  02:02        1.97
  CC-1                 OUTFALL      0.00     0.00     0.00     0  00:00        0.00
  CC-2                 OUTFALL      0.00     0.00     0.00     0  00:00        0.00
  JK-1                 OUTFALL      0.00     0.00     0.00     0  00:00        0.00
  JK-2                 OUTFALL      0.00     0.00     0.00     0  00:00        0.00
  WSC                  OUTFALL      0.17     0.30     0.97     0  02:19        0.30
  CC-storage           STORAGE      0.86     1.89     7.39     0  02:42        1.89
  JK-storage           STORAGE      1.65     4.23     5.03     0  02:12        4.22
  
  
  *******************
  Node Inflow Summary
  *******************
  
  -------------------------------------------------------------------------------------------------
                                  Maximum  Maximum                  Lateral       Total        Flow
                                  Lateral    Total  Time of Max      Inflow      Inflow     Balance
                                   Inflow   Inflow   Occurrence      Volume      Volume       Error
  Node                 Type           LPS      LPS  days hr:min    10^6 ltr    10^6 ltr     Percent
  -------------------------------------------------------------------------------------------------
  WS02003060           JUNCTION     16.53   552.65     0  02:17       0.476        4.95       0.044
  WS02003066           JUNCTION      0.00   536.07     0  02:17           0        4.47       0.030
  WS02003067           JUNCTION      0.00   536.05     0  02:17           0        4.48       0.092
  WS02003069           JUNCTION      0.32   552.93     0  02:18     0.00922        4.95       0.077
  WS02003072           JUNCTION      0.00   552.86     0  02:18           0        4.95       0.137
  WS02003073           JUNCTION      1.82   554.63     0  02:19      0.0524        4.99       0.109
  WS02004401           JUNCTION      0.00   545.03     0  03:12           0        4.58       0.222
  WS02004402           JUNCTION      0.00   536.72     0  02:18           0        4.57       0.227
  WS02004403           JUNCTION      0.00   536.75     0  02:18           0        4.55       0.220
  WS02004404           JUNCTION      0.16   536.43     0  02:15     0.00467        4.55       0.185
  WS02004405           JUNCTION      0.04   536.44     0  02:14      0.0011        4.54       0.275
  WS02004406           JUNCTION      0.00   536.44     0  02:14           0        4.53       0.459
  WS02004407           JUNCTION      0.00   536.36     0  02:15           0        4.51       0.025
  WS02004409           JUNCTION      0.00   536.32     0  02:15           0        4.51       0.057
  WS02004410           JUNCTION      0.00   536.26     0  02:15           0        4.51       0.094
  WS02004411           JUNCTION      0.00   536.15     0  02:16           0         4.5       0.121
  WS02004412           JUNCTION      0.00   536.14     0  02:16           0         4.5       0.163
  WS02004413           JUNCTION      0.00   536.14     0  02:16           0        4.49       0.293
  WS02006109           JUNCTION      1.23   585.48     0  03:11      0.0354        4.63       0.208
  WS02006110           JUNCTION      0.00   590.85     0  03:11           0        4.62       0.151
  WS02006111           JUNCTION      0.00   571.73     0  03:11           0        4.61       0.020
  WS02006112           JUNCTION      0.00   555.73     0  03:11           0        4.61       0.410
  WS02006113           JUNCTION      0.00   606.94     0  03:11           0        4.61       0.040
  WS02006115           JUNCTION      0.00   571.13     0  03:11           0        4.59       0.147
  WS02006116           JUNCTION      0.00   553.46     0  03:12           0        4.58       0.110
  WS02006228           JUNCTION      0.00   575.31     0  03:11           0        4.59       0.091
  WS02006229           JUNCTION      0.00   573.91     0  03:11           0         4.6       0.106
  WS02006230           JUNCTION     10.28   588.67     0  02:16       0.296         4.6       0.086
  WS02006231           JUNCTION      0.00   573.53     0  02:25           0        4.31      -0.003
  WS02006232           JUNCTION      0.00   572.88     0  02:25           0        4.32       0.204
  WS02006234           JUNCTION      0.00   568.55     0  02:25           0         4.3      -0.314
  WS02006235           JUNCTION      0.00   563.38     0  02:16           0        4.39       0.330
  WS02006238           JUNCTION      0.00   424.21     0  02:30           0        3.56      -0.080
  WS02006239           JUNCTION      0.00   423.36     0  02:30           0         3.5      -0.106
  WS02006240           JUNCTION      0.00   420.94     0  02:30           0        3.46      -0.011
  WS02006242           JUNCTION      0.00   420.54     0  02:30           0        3.45      -0.043
  WS02006243           JUNCTION      0.00   419.89     0  02:30           0        3.44      -0.236
  WS02006245           JUNCTION      0.00   420.63     0  02:30           0        3.45       0.395
  WS02006247           JUNCTION      0.00   421.88     0  01:56           0        3.45       0.002
  WS02006248           JUNCTION      0.00   443.23     0  01:56           0        3.45      -0.039
  WS02006249           JUNCTION      0.00   467.42     0  04:10           0        3.68       0.482
  WS02006251           JUNCTION      0.08   411.13     0  02:01     0.00222        3.68       0.048
  WS02006252           JUNCTION      0.00   400.00     0  00:00           0        3.66      -0.441
  WS02006256           JUNCTION      0.00   300.00     0  00:00           0        1.25      -1.891
  WSF200               JUNCTION      0.00   536.09     0  02:17           0        4.47       0.009
  YS02001580           JUNCTION      0.00    65.32     0  01:54           0     0.00408      -2.196
  YS02001583           JUNCTION      0.00   104.54     0  01:54           0      0.0158      -2.617
  YS02001586           JUNCTION   1217.23  1217.23     0  02:15        2.58        2.59       0.040
  YS02001590           JUNCTION      0.00   319.75     0  02:29           0        1.66      -0.019
  YS02001593           JUNCTION      0.00   319.51     0  02:29           0        1.66       0.004
  YS02001596           JUNCTION      0.00   318.08     0  02:14           0        1.66      -0.008
  YS02001600           JUNCTION      0.00   318.17     0  02:43           0        1.66       0.015
  YS02001601           JUNCTION   2105.06  2422.61     0  02:14        3.49        5.15       0.016
  YS02001602           JUNCTION      0.00   493.33     0  01:54           0         2.7       0.020
  YS02001605           JUNCTION      0.00   493.64     0  01:54           0        2.52       0.029
  YS02001607           JUNCTION      0.00   494.13     0  01:54           0        2.52       0.076
  YS02001610           JUNCTION      0.00   955.21     0  02:17           0        3.14       0.075
  YS02001613           JUNCTION      0.00   619.22     0  02:17           0        2.43       0.071
  YS02001616           JUNCTION      0.00   618.89     0  02:17           0        2.43       0.014
  YS02001619           JUNCTION   2168.21  2168.21     0  02:14        4.15        5.95       0.001
  YS02001622           JUNCTION      0.00  1053.97     0  02:15           0        5.16       0.002
  YS02001625           JUNCTION      0.00  1505.37     0  02:19           0        5.63       0.180
  YS02001629           JUNCTION      0.00   927.05     0  02:00           0        4.06       0.004
  YS02001633           JUNCTION   1583.17  1583.17     0  02:14        2.56           6       0.055
  YS02001641           JUNCTION      0.00  1335.92     0  02:00           0        5.39       0.049
  YS02001644           JUNCTION   1409.12  2669.60     0  02:13        2.22        7.73       0.044
  YS02001647           JUNCTION      0.00  1704.23     0  02:00           0        6.31       0.006
  YS02001649           JUNCTION      0.00  1929.05     0  02:00           0        8.24       0.007
  YS02001652           JUNCTION      0.00  1402.87     0  02:13           0        2.06      -0.043
  YS02001655           JUNCTION      0.15  1402.39     0  02:13     0.00443        2.06      -0.083
  YS02001658           JUNCTION      0.00  1401.76     0  02:13           0        2.07      -0.060
  YS02001661           JUNCTION      0.00  1400.70     0  02:13           0        2.07       0.021
  YS02001664           JUNCTION   1391.47  1391.47     0  02:13        2.05        2.05      -0.010
  YS02001745           JUNCTION    871.35   871.35     0  02:13        1.23        1.23       0.142
  YS02001748           JUNCTION      0.04   878.74     0  02:13      0.0013        1.23      -0.210
  YS02001751           JUNCTION      0.01   879.66     0  02:13    0.000317        1.23      -0.009
  YS02001754           JUNCTION      0.26   880.05     0  02:13     0.00749        1.24      -0.110
  YS02001757           JUNCTION      0.00  3133.15     0  02:11           0        12.9       0.028
  YS02001759           JUNCTION   1213.18  1372.28     0  02:12         1.7        3.52      -0.001
  YS02001762           JUNCTION      0.00   719.44     0  02:06           0        1.83       0.021
  YS02001765           JUNCTION      0.00   719.91     0  02:06           0        1.83       0.022
  YS02001767           JUNCTION      0.54   720.48     0  02:06      0.0154        1.83       0.024
  YS02001770           JUNCTION   1705.43  1705.43     0  02:13        2.57        2.62       0.001
  YS02001774           JUNCTION      0.00   852.02     0  02:15           0       0.665       0.217
  YS02001779           JUNCTION      0.01   851.70     0  02:16    0.000144       0.616      -0.109
  YS02001783           JUNCTION      0.00  1179.42     0  02:13           0        5.07       0.006
  YS02001784           JUNCTION      1.06  1180.78     0  02:13      0.0305         5.1       0.011
  YS02001786           JUNCTION      0.06  1180.49     0  02:13     0.00162         5.1       0.014
  YS02001788           JUNCTION      0.07  1182.04     0  02:13     0.00204         5.1       0.006
  YS02001790           JUNCTION      0.15  1188.42     0  02:12     0.00446        5.11       0.022
  YS02001791           JUNCTION      0.00  1303.96     0  02:11           0        5.11      -0.030
  YS02001793           JUNCTION      0.00  1260.03     0  02:14           0        5.11       0.005
  YS02001882           JUNCTION      0.00    36.21     0  01:58           0      0.0133       6.025
  YS02001884           JUNCTION      0.00    35.07     0  01:54           0        0.05       5.433
  YS02001887           JUNCTION   1298.10  1302.37     0  02:13        1.76        1.79       0.257
  YS02001890           JUNCTION      0.00  1302.30     0  02:13           0        1.75       0.301
  YS02001895           JUNCTION      0.00   518.38     0  02:20           0        1.42       0.134
  YS02001898           JUNCTION      0.00   517.82     0  02:17           0        1.42       0.007
  YS02001901           JUNCTION      0.00   518.19     0  02:11           0        1.42       0.242
  YS02001904           JUNCTION      0.00   519.11     0  02:20           0        1.43       0.197
  YS02001907           JUNCTION      0.00  3093.73     0  02:13           0        5.36       0.340
  YS02001910           JUNCTION      0.00  1993.20     0  02:16           0        3.77       0.192
  YS02001915           JUNCTION   1521.72  2273.20     0  02:14        2.45        3.85       0.042
  YS02001918           JUNCTION      0.00   752.06     0  02:14           0        1.41       0.023
  YS02001920           JUNCTION      2.87   751.36     0  02:13      0.0827         1.4       0.075
  YS02001923           JUNCTION      0.04   748.09     0  02:14     0.00109        1.31      -0.006
  YS02001926           JUNCTION      0.05   749.07     0  02:14      0.0015        1.29       0.025
  YS02001929           JUNCTION    747.92   747.92     0  02:14        1.29        1.29      -0.011
  YS02006553           JUNCTION      0.00   806.87     0  02:34           0        2.86       0.422
  YS02006556           JUNCTION      0.00   807.62     0  02:34           0        2.87       0.286
  YS02006558           JUNCTION   1753.98  1753.98     0  02:13        2.58        5.27       0.069
  YS02006561           JUNCTION      0.00  1178.95     0  02:13           0        5.07      -0.003
  YS02163301           JUNCTION      0.00   927.69     0  02:00           0        4.06       0.034
  YS02163601           JUNCTION      0.11  1336.20     0  02:00     0.00317        5.39       0.088
  YS02164001           JUNCTION      0.00  1335.97     0  02:00           0        5.39       0.043
  CC-1                 OUTFALL       0.00   683.00     0  00:00           0        5.33       0.000
  CC-2                 OUTFALL       0.00   683.00     0  00:00           0        4.76       0.000
  JK-1                 OUTFALL       0.00  1000.00     0  00:00           0        1.28       0.000
  JK-2                 OUTFALL       0.00  1000.00     0  00:00           0         2.7       0.000
  WSC                  OUTFALL       0.00   554.56     0  02:19           0        4.99       0.000
  CC-storage           STORAGE       0.00  3134.14     0  02:11           0        15.1      -0.205
  JK-storage           STORAGE       0.00  1260.09     0  02:08           0        5.26      -0.322
  
  
  **********************
  Node Surcharge Summary
  **********************
  
  Surcharging occurs when water rises above the top of the highest conduit.
  ---------------------------------------------------------------------
                                               Max. Height   Min. Depth
                                   Hours       Above Crown    Below Rim
  Node                 Type      Surcharged         Meters       Meters
  ---------------------------------------------------------------------
  WS02006109           JUNCTION        2.03          0.560        1.260
  WS02006110           JUNCTION        0.69          0.573        1.277
  WS02006112           JUNCTION        0.72          0.059        1.621
  WS02006228           JUNCTION        2.02          0.455        1.745
  WS02006229           JUNCTION        2.03          0.461        1.989
  WS02006230           JUNCTION        0.69          0.284        1.286
  WS02006231           JUNCTION        0.84          0.429        1.101
  WS02006232           JUNCTION        2.08          1.042        0.438
  WS02006234           JUNCTION        1.17          0.974        0.266
  WS02006235           JUNCTION        2.00          1.205        0.085
  WS02006238           JUNCTION        2.04          1.287        0.143
  WS02006239           JUNCTION        2.00          1.290        0.000
  WS02006240           JUNCTION        2.02          1.390        0.000
  WS02006242           JUNCTION        2.10          0.820        0.000
  WS02006243           JUNCTION        2.02          0.770        0.000
  WS02006245           JUNCTION        2.00          0.766        0.084
  WS02006247           JUNCTION        2.02          0.677        0.083
  WS02006248           JUNCTION        1.98          0.380        0.000
  WS02006249           JUNCTION        1.99          0.390        0.000
  WS02006251           JUNCTION        0.88          0.471        0.709
  WS02006252           JUNCTION        2.30          1.100        0.000
  WS02006256           JUNCTION        6.98          2.050        0.000
  YS02001580           JUNCTION        0.90          0.450        0.000
  YS02001583           JUNCTION        0.91          0.397        0.103
  YS02001586           JUNCTION        1.07          0.510        0.000
  YS02001590           JUNCTION        1.16          0.750        0.000
  YS02001593           JUNCTION        1.16          0.810        0.030
  YS02001596           JUNCTION        1.28          1.020        0.050
  YS02001600           JUNCTION        1.43          1.190        0.000
  YS02001601           JUNCTION        1.75          1.440        0.000
  YS02001602           JUNCTION        1.66          1.270        0.000
  YS02001605           JUNCTION        1.61          1.180        0.000
  YS02001607           JUNCTION        1.16          0.676        0.004
  YS02001610           JUNCTION        1.19          0.680        0.000
  YS02001613           JUNCTION        1.16          0.674        0.026
  YS02001616           JUNCTION        1.12          0.610        0.000
  YS02001619           JUNCTION        1.10          0.610        0.000
  YS02001622           JUNCTION        1.10          0.585        0.035
  YS02001625           JUNCTION        1.27          0.780        0.000
  YS02001629           JUNCTION        1.04          0.470        0.000
  YS02001633           JUNCTION        1.31          1.060        0.000
  YS02001641           JUNCTION        1.25          0.992        0.108
  YS02001644           JUNCTION        1.22          0.920        0.000
  YS02001647           JUNCTION        1.01          0.783        0.117
  YS02001649           JUNCTION        1.11          1.035        0.015
  YS02001652           JUNCTION        0.93          0.905        0.225
  YS02001655           JUNCTION        0.72          0.959        0.241
  YS02001658           JUNCTION        0.42          0.598        0.702
  YS02001661           JUNCTION        0.16          0.355        1.035
  YS02001664           JUNCTION        0.01          0.004        1.306
  YS02001745           JUNCTION        0.03          0.047        1.303
  YS02001748           JUNCTION        0.35          0.503        0.687
  YS02001751           JUNCTION        0.60          0.599        0.601
  YS02001754           JUNCTION        0.85          0.781        0.369
  YS02001757           JUNCTION        1.18          1.135        0.075
  YS02001759           JUNCTION        1.09          1.144        0.066
  YS02001762           JUNCTION        1.07          1.095        0.055
  YS02001765           JUNCTION        1.03          1.033        0.067
  YS02001767           JUNCTION        1.01          0.979        0.051
  YS02001770           JUNCTION        0.97          0.920        0.000
  YS02001774           JUNCTION        1.05          1.002        0.048
  YS02001779           JUNCTION        0.83          0.680        0.000
  YS02001783           JUNCTION        0.75          0.486        1.114
  YS02001784           JUNCTION        0.72          0.345        1.145
  YS02001786           JUNCTION        0.59          0.099        1.331
  YS02001882           JUNCTION        0.68          0.722        0.108
  YS02001884           JUNCTION        0.69          0.760        0.110
  YS02001887           JUNCTION        0.74          0.849        0.101
  YS02001890           JUNCTION        0.76          0.760        0.000
  YS02001895           JUNCTION        0.67          0.604        0.146
  YS02001898           JUNCTION        0.66          0.541        0.199
  YS02001901           JUNCTION        0.72          0.723        0.147
  YS02001904           JUNCTION        0.71          0.642        0.208
  YS02001907           JUNCTION        1.06          0.950        0.000
  YS02001910           JUNCTION        0.79          1.014        0.086
  YS02001915           JUNCTION        0.68          1.000        0.000
  YS02001918           JUNCTION        0.58          0.733        0.077
  YS02001920           JUNCTION        0.59          0.876        0.264
  YS02001923           JUNCTION        0.24          0.474        0.346
  YS02001926           JUNCTION        0.27          0.525        0.375
  YS02001929           JUNCTION        0.13          0.471        0.309
  YS02006553           JUNCTION        1.08          0.993        0.197
  YS02006556           JUNCTION        0.91          0.965        0.385
  YS02006558           JUNCTION        0.89          0.975        0.425
  YS02006561           JUNCTION        0.54          0.202        0.948
  YS02163301           JUNCTION        1.29          0.948        0.082
  YS02163601           JUNCTION        1.35          1.080        0.000
  YS02164001           JUNCTION        1.25          1.011        0.089
  
  
  *********************
  Node Flooding Summary
  *********************
  
  Flooding refers to all water that overflows a node, whether it ponds or not.
  --------------------------------------------------------------------------
                                                             Total   Maximum
                                 Maximum   Time of Max       Flood    Ponded
                        Hours       Rate    Occurrence      Volume     Depth
  Node                 Flooded       LPS   days hr:min    10^6 ltr    Meters
  --------------------------------------------------------------------------
  WS02006239              0.01      1.98      0  03:11       0.000     0.000
  WS02006240              0.01     62.57      0  03:55       0.000     0.000
  WS02006242              0.01     27.28      0  03:55       0.000     0.000
  WS02006243              0.01     48.65      0  03:55       0.000     0.000
  WS02006248              0.01     72.88      0  02:01       0.001     0.000
  WS02006249              0.85    129.98      0  02:01       0.206     0.000
  WS02006252              0.01    245.63      0  00:00       0.000     0.000
  WS02006256              1.16    293.19      0  00:00       0.407     0.000
  YS02001580              0.01     39.55      0  01:55       0.000     0.000
  YS02001586              0.73    899.61      0  02:15       0.915     0.000
  YS02001590              0.01      6.25      0  01:55       0.000     0.000
  YS02001600              0.01      1.65      0  01:55       0.000     0.000
  YS02001601              0.99   2024.73      0  02:14       2.451     0.000
  YS02001602              0.85     62.02      0  02:31       0.175     0.000
  YS02001605              0.01      0.13      0  02:29       0.000     0.000
  YS02001610              0.76    954.99      0  02:17       1.333     0.000
  YS02001616              0.05     11.54      0  02:29       0.000     0.000
  YS02001619              0.16    502.12      0  02:14       0.167     0.000
  YS02001625              0.74   1505.17      0  02:19       2.176     0.000
  YS02001629              0.26    395.99      0  02:14       0.150     0.000
  YS02001633              0.01      0.79      0  02:13       0.000     0.000
  YS02001644              0.37   2668.82      0  02:13       1.535     0.000
  YS02001770              0.12    714.77      0  02:13       0.167     0.000
  YS02001779              0.32    851.43      0  02:16       0.594     0.000
  YS02001890              0.29    785.63      0  02:13       0.325     0.000
  YS02001907              0.52   3092.12      0  02:13       2.647     0.000
  YS02001915              0.08    280.53      0  02:14       0.050     0.000
  YS02163601              0.01      2.44      0  02:02       0.000     0.000
  
  
  **********************
  Storage Volume Summary
  **********************
  
  ------------------------------------------------------------------------------------------------
                         Average    Avg   Evap  Exfil     Maximum    Max    Time of Max    Maximum
                          Volume   Pcnt   Pcnt   Pcnt      Volume   Pcnt     Occurrence    Outflow
  Storage Unit           1000 m³   Full   Loss   Loss     1000 m³   Full    days hr:min        LPS
  ------------------------------------------------------------------------------------------------
  CC-storage               2.400   37.4    0.0    0.0       5.275   82.3       0  02:42    1783.53
  JK-storage               0.083   28.5    0.0    0.0       0.213   73.0       0  02:12    2300.00
  
  
  ***********************
  Outfall Loading Summary
  ***********************
  
  -----------------------------------------------------------
                         Flow       Avg       Max       Total
                         Freq      Flow      Flow      Volume
  Outfall Node           Pcnt       LPS       LPS    10^6 ltr
  -----------------------------------------------------------
  CC-1                  44.74    683.00    683.00       5.325
  CC-2                  36.78    683.00    683.00       4.760
  JK-1                   6.81   1000.00   1000.00       1.281
  JK-2                  13.94   1000.00   1000.00       2.700
  WSC                   99.95    242.80    554.56       4.989
  -----------------------------------------------------------
  System                40.44   3608.80   3920.46      19.054
  
  
  ********************
  Link Flow Summary
  ********************
  
  -----------------------------------------------------------------------------
                                 Maximum  Time of Max   Maximum    Max/    Max/
                                  |Flow|   Occurrence   |Veloc|    Full    Full
  Link                 Type          LPS  days hr:min     m/sec    Flow   Depth
  -----------------------------------------------------------------------------
  1                    CONDUIT    554.56     0  02:19      2.83    0.19    0.30
  WS02003060WS02003069 CONDUIT    552.61     0  02:18      1.64    0.22    0.34
  WS02003066WSF200     CONDUIT    536.09     0  02:17      2.85    0.09    0.22
  WS02003067WS02003066 CONDUIT    536.07     0  02:17      1.21    0.17    0.42
  WS02003069WS02003072 CONDUIT    552.86     0  02:18      1.37    0.27    0.39
  WS02003072WS02003073 CONDUIT    552.81     0  02:19      1.43    1.19    0.37
  WS02004401WS02004402 CONDUIT    536.72     0  02:18      1.08    0.64    0.86
  WS02004402WS02004403 CONDUIT    536.75     0  02:18      1.09    0.77    0.88
  WS02004403WS02004404 CONDUIT    536.27     0  02:15      1.05    0.39    0.93
  WS02004404WS02004405 CONDUIT    536.40     0  02:14      1.24    5.26    0.96
  WS02004405WS02004406 CONDUIT    536.44     0  02:14      1.20    1.06    0.96
  WS02004406WS02004407 CONDUIT    536.36     0  02:15      1.04    0.24    0.63
  WS02004407WS02004409 CONDUIT    536.32     0  02:15      1.54    0.19    0.48
  WS02004409WS02004410 CONDUIT    536.26     0  02:15      1.01    0.69    0.67
  WS02004410WS02004411 CONDUIT    536.15     0  02:16      0.94    0.73    0.69
  WS02004411WS02004412 CONDUIT    536.14     0  02:16      0.92    0.76    0.69
  WS02004412WS02004413 CONDUIT    536.14     0  02:16      0.82    0.36    0.78
  WS02004413WS02003067 CONDUIT    536.05     0  02:17      1.11    0.23    0.59
  WS02006109WS02006110 CONDUIT    590.85     0  03:11      1.18    1.14    1.00
  WS02006110WS02006113 CONDUIT    606.94     0  03:11      1.45    0.55    0.79
  WS02006111WS02006112 CONDUIT    555.73     0  03:11      1.87    0.26    0.68
  WS02006112WS02006115 CONDUIT    571.13     0  03:11      0.85    0.34    0.87
  WS02006113WS02006111 CONDUIT    571.73     0  03:11      2.47    0.69    0.47
  WS02006115WS02006116 CONDUIT    553.46     0  03:12      1.09    0.71    0.76
  WS02006116WS02004401 CONDUIT    545.03     0  03:12      1.07    0.75    0.84
  WS02006228WS02006109 CONDUIT    584.25     0  03:11      1.16    2.55    1.00
  WS02006229WS02006228 CONDUIT    575.31     0  03:11      1.14    1.91    1.00
  WS02006230WS02006229 CONDUIT    573.91     0  03:11      1.49   12.77    1.00
  WS02006231WS02006230 CONDUIT    578.39     0  02:16      1.59    8.77    1.00
  WS02006232WS02006231 CONDUIT    573.53     0  02:25      1.52    1.20    1.00
  WS02006234WS02006232 CONDUIT    572.88     0  02:25      1.49    1.16    1.00
  WS02006235WS02006234 CONDUIT    568.55     0  02:25      1.48    6.00    1.00
  WS02006238WS02006235 CONDUIT    424.75     0  02:30      1.45    0.95    1.00
  WS02006239WS02006238 CONDUIT    424.21     0  02:30      1.10    1.36    1.00
  WS02006240WS02006239 CONDUIT    423.36     0  02:30      1.24    1.33    1.00
  WS02006242WS02006240 CONDUIT    420.94     0  02:30      1.13    1.67    1.00
  WS02006243WS02006242 CONDUIT    420.54     0  02:30      1.40    0.90    1.00
  WS02006245WS02006243 CONDUIT    419.89     0  02:30      1.45    1.24    1.00
  WS02006247WS02006245 CONDUIT    420.63     0  02:30      1.43    3.34    1.00
  WS02006248WS02006247 CONDUIT    421.88     0  01:56      1.44    0.92    1.00
  WS02006249WS02006248 CONDUIT    443.23     0  01:56      1.39    2.43    1.00
  WS02006251WS02006249 CONDUIT    467.42     0  04:10      1.99    1.35    1.00
  WS02006252WS02006251 CONDUIT    411.06     0  02:01     21.52    1.51    1.00
  WS02006256WS02006235 CONDUIT    288.91     0  00:00      4.23    3.06    1.00
  WSF200WS02003060     CONDUIT    536.12     0  02:17      2.06    0.12    0.28
  YS02001580YS02001583 CONDUIT     65.32     0  01:54      0.49    0.25    1.00
  YS02001583YS02001586 CONDUIT    104.54     0  01:54      0.44    0.16    1.00
  YS02001586YS02001590 CONDUIT    319.75     0  02:29      1.24    0.56    1.00
  YS02001590YS02001593 CONDUIT    319.51     0  02:29      1.13    2.01    1.00
  YS02001593YS02001596 CONDUIT    318.08     0  02:14      1.72    0.50    1.00
  YS02001596YS02001600 CONDUIT    318.17     0  02:43      1.28    0.62    1.00
  YS02001600YS02001601 CONDUIT    318.03     0  02:23      1.12    0.55    1.00
  YS02001601YS02001602 CONDUIT    493.33     0  01:54      1.74    1.78    1.00
  YS02001602YS02001605 CONDUIT    493.64     0  01:54      1.75   10.45    1.00
  YS02001605YS02001607 CONDUIT    494.13     0  01:54      1.75    2.71    1.00
  YS02001607YS02001610 CONDUIT    491.86     0  01:54      0.63    0.47    1.00
  YS02001610YS02001613 CONDUIT    619.08     0  02:17      0.79    0.71    1.00
  YS02001613YS02001616 CONDUIT    619.22     0  02:17      0.79    0.53    1.00
  YS02001616YS02001619 CONDUIT    618.89     0  02:17      0.79    1.07    1.00
  YS02001619YS02001622 CONDUIT   1053.97     0  02:15      1.34    1.55    1.00
  YS02001622YS02001625 CONDUIT   1053.70     0  02:15      1.34    0.56    1.00
  YS02001625YS02001629 CONDUIT    927.05     0  02:00      1.18    0.44    1.00
  YS02001629YS02163301 CONDUIT    927.69     0  02:00      1.18    1.14    1.00
  YS02001633YS02163601 CONDUIT   1336.09     0  02:00      1.70    1.40    1.00
  YS02001641YS02001644 CONDUIT   1336.09     0  02:00      1.70    4.32    1.00
  YS02001644YS02001647 CONDUIT   1704.23     0  02:00      2.19    1.00    1.00
  YS02001647YS02001649 CONDUIT   1722.89     0  02:00      2.30    0.91    1.00
  YS02001649YS02001757 CONDUIT   1925.91     0  02:00      2.49    1.17    1.00
  YS02001652YS02001649 CONDUIT   1403.28     0  02:13      1.79    0.70    1.00
  YS02001655YS02001652 CONDUIT   1402.87     0  02:13      1.79    0.68    1.00
  YS02001658YS02001655 CONDUIT   1402.24     0  02:13      1.82    0.59    1.00
  YS02001661YS02001658 CONDUIT   1401.76     0  02:13      2.22    0.55    1.00
  YS02001664YS02001661 CONDUIT   1400.70     0  02:13      2.16    0.44    1.00
  YS02001745YS02001748 CONDUIT    878.70     0  02:13      2.06    0.34    1.00
  YS02001748YS02001751 CONDUIT    879.65     0  02:13      1.61    0.44    1.00
  YS02001751YS02001754 CONDUIT    879.79     0  02:13      1.38    0.42    1.00
  YS02001754YS02001757 CONDUIT    880.71     0  02:13      1.12    0.35    1.00
  YS02001757CaochengTiaoxuchi CONDUIT   3134.14     0  02:11      3.99    1.36    1.00
  YS02001759YS02001757 CONDUIT   1371.86     0  02:12      1.75    0.97    1.00
  YS02001762YS02001759 CONDUIT    719.99     0  02:06      0.92    0.83    1.00
  YS02001765YS02001762 CONDUIT    719.44     0  02:06      0.92    0.67    1.00
  YS02001767YS02001765 CONDUIT    719.91     0  02:06      0.92    0.91    1.00
  YS02001770YS02001767 CONDUIT    719.95     0  02:06      0.92    2.85    1.00
  YS02001774YS02001770 CONDUIT    852.02     0  02:15      1.08    0.54    1.00
  YS02001779YS02001774 CONDUIT    851.69     0  02:16      1.08    0.43    1.00
  YS02001783YS02001784 CONDUIT   1179.72     0  02:13      2.35    1.63    1.00
  YS02001784YS02001785 CONDUIT   1180.44     0  02:13      2.35    2.75    1.00
  YS02001786YS02001788 CONDUIT   1181.97     0  02:13      2.51    2.28    0.89
  YS02001788YS02001790 CONDUIT   1188.27     0  02:12      2.73    0.88    0.85
  YS02001790YS02001791 CONDUIT   1303.96     0  02:11      3.44    1.42    0.71
  YS02001791YS02001793 CONDUIT   1260.03     0  02:14      6.79    0.54    0.44
  YS02001793JiankangQianchi CONDUIT   1260.09     0  02:08      2.53    0.10    0.65
  YS02001882YS02001884 CONDUIT     36.21     0  01:58      0.16    0.04    1.00
  YS02001884YS02001887 CONDUIT     36.95     0  02:48      0.12    0.05    1.00
  YS02001887YS02001890 CONDUIT   1302.30     0  02:13      1.66    2.23    1.00
  YS02001890YS02001895 CONDUIT    518.38     0  02:20      0.66    0.24    1.00
  YS02001895YS02001898 CONDUIT    517.82     0  02:17      0.66    0.90    1.00
  YS02001898YS02001901 CONDUIT    518.19     0  02:11      0.66    0.33    1.00
  YS02001901YS02001904 CONDUIT    519.11     0  02:20      0.66    0.81    1.00
  YS02001904YS02001907 CONDUIT    521.46     0  02:20      0.66    0.18    1.00
  YS02001907YS02006553 CONDUIT    806.87     0  02:34      0.90    0.95    1.00
  YS02001910YS02001907 CONDUIT   1993.01     0  02:14      2.54    1.12    1.00
  YS02001915YS02001910 CONDUIT   1993.20     0  02:16      2.54    0.99    1.00
  YS02001918YS02001915 CONDUIT    751.64     0  02:14      0.96    0.41    1.00
  YS02001920YS02001918 CONDUIT    752.06     0  02:14      0.96    0.73    1.00
  YS02001923YS02001920 CONDUIT    748.49     0  02:13      0.95    0.34    1.00
  YS02001926YS02001923 CONDUIT    748.05     0  02:14      0.95    1.07    1.00
  YS02001929YS02001926 CONDUIT    749.01     0  02:14      1.06    0.36    1.00
  YS02006553YS02006556 CONDUIT    807.62     0  02:34      1.03    0.69    1.00
  YS02006556YS02006558 CONDUIT    809.07     0  02:34      1.03    0.64    1.00
  YS02006558YS02006561 CONDUIT   1178.95     0  02:13      4.17    2.61    1.00
  YS02006561YS02001783 CONDUIT   1179.42     0  02:13      2.35    0.61    1.00
  YS02163301YS02001633 CONDUIT    927.86     0  02:00      1.18    0.87    1.00
  YS02163601YS02164001 CONDUIT   1335.97     0  02:00      1.70    1.18    1.00
  YS02164001YS02001641 CONDUIT   1335.92     0  02:00      1.70    1.82    1.00
  CC-R1                PUMP       683.00     0  00:00              1.00
  CC-R2                PUMP       683.00     0  00:00              1.00
  CC-S1                PUMP       200.00     0  00:00              1.00
  CC-S2                PUMP       200.00     0  00:00              1.00
  JK-R1                PUMP      1000.00     0  00:00              1.00
  JK-R2                PUMP      1000.00     0  00:00              1.00
  JK-S                 PUMP       300.00     0  00:00              1.00
  
  
  ***************************
  Flow Classification Summary
  ***************************
  
  -------------------------------------------------------------------------------------
                      Adjusted    ---------- Fraction of Time in Flow Class ---------- 
                       /Actual         Up    Down  Sub   Sup   Up    Down  Norm  Inlet 
  Conduit               Length    Dry  Dry   Dry   Crit  Crit  Crit  Crit  Ltd   Ctrl  
  -------------------------------------------------------------------------------------
  1                       1.00   0.00  0.00  0.00  0.00  1.00  0.00  0.00  0.39  0.00
  WS02003060WS02003069    1.00   0.00  0.00  0.00  0.98  0.02  0.00  0.00  0.70  0.00
  WS02003066WSF200        1.00   0.08  0.00  0.00  0.00  0.92  0.00  0.00  0.81  0.00
  WS02003067WS02003066    1.00   0.07  0.01  0.00  0.93  0.00  0.00  0.00  0.00  0.00
  WS02003069WS02003072    1.00   0.00  0.00  0.00  0.99  0.01  0.00  0.00  0.72  0.00
  WS02003072WS02003073    1.00   0.00  0.00  0.00  0.00  0.00  0.00  1.00  0.00  0.00
  WS02004401WS02004402    1.00   0.02  0.00  0.00  0.98  0.00  0.00  0.00  0.00  0.00
  WS02004402WS02004403    1.00   0.02  0.00  0.00  0.97  0.00  0.00  0.00  0.00  0.00
  WS02004403WS02004404    1.00   0.00  0.03  0.00  0.97  0.00  0.00  0.00  0.00  0.00
  WS02004404WS02004405    1.00   0.00  0.00  0.00  1.00  0.00  0.00  0.00  0.00  0.00
  WS02004405WS02004406    1.00   0.00  0.00  0.00  1.00  0.00  0.00  0.00  0.00  0.00
  WS02004406WS02004407    1.00   0.00  0.04  0.00  0.96  0.00  0.00  0.00  0.00  0.00
  WS02004407WS02004409    1.00   0.04  0.00  0.00  0.95  0.01  0.00  0.00  0.95  0.00
  WS02004409WS02004410    1.00   0.04  0.00  0.00  0.96  0.00  0.00  0.00  0.00  0.00
  WS02004410WS02004411    1.00   0.04  0.00  0.00  0.96  0.00  0.00  0.00  0.00  0.00
  WS02004411WS02004412    1.00   0.04  0.00  0.00  0.96  0.00  0.00  0.00  0.00  0.00
  WS02004412WS02004413    1.00   0.04  0.00  0.00  0.95  0.00  0.00  0.00  0.01  0.00
  WS02004413WS02003067    1.00   0.05  0.02  0.00  0.00  0.00  0.93  0.00  0.00  0.00
  WS02006109WS02006110    1.00   0.00  0.01  0.00  0.98  0.00  0.01  0.00  0.00  0.00
  WS02006110WS02006113    1.00   0.01  0.01  0.00  0.98  0.00  0.00  0.00  0.00  0.00
  WS02006111WS02006112    1.00   0.02  0.00  0.00  0.98  0.00  0.00  0.00  0.98  0.00
  WS02006112WS02006115    1.00   0.02  0.00  0.00  0.97  0.00  0.00  0.00  0.00  0.00
  WS02006113WS02006111    1.00   0.02  0.00  0.00  0.00  0.98  0.00  0.00  0.11  0.00
  WS02006115WS02006116    1.00   0.02  0.00  0.00  0.97  0.00  0.00  0.01  0.00  0.00
  WS02006116WS02004401    1.00   0.02  0.00  0.00  0.98  0.00  0.00  0.00  0.00  0.00
  WS02006228WS02006109    1.00   0.00  0.00  0.00  1.00  0.00  0.00  0.00  0.00  0.00
  WS02006229WS02006228    1.00   0.00  0.00  0.00  0.99  0.00  0.00  0.01  0.00  0.00
  WS02006230WS02006229    1.00   0.00  0.00  0.00  0.99  0.00  0.00  0.01  0.02  0.00
  WS02006231WS02006230    1.00   0.00  0.00  0.00  0.28  0.00  0.71  0.00  0.00  0.00
  WS02006232WS02006231    1.00   0.00  0.00  0.00  0.99  0.00  0.01  0.00  0.00  0.00
  WS02006234WS02006232    1.00   0.00  0.00  0.00  1.00  0.00  0.00  0.00  0.04  0.00
  WS02006235WS02006234    1.00   0.00  0.00  0.00  0.89  0.00  0.11  0.00  0.00  0.00
  WS02006238WS02006235    1.00   0.00  0.00  0.00  1.00  0.00  0.00  0.00  0.00  0.00
  WS02006239WS02006238    1.00   0.00  0.00  0.00  1.00  0.00  0.00  0.00  0.16  0.00
  WS02006240WS02006239    1.00   0.00  0.00  0.00  0.62  0.00  0.00  0.38  0.03  0.00
  WS02006242WS02006240    1.00   0.00  0.00  0.00  0.99  0.00  0.01  0.00  0.00  0.00
  WS02006243WS02006242    1.00   0.00  0.00  0.00  0.99  0.00  0.00  0.00  0.60  0.00
  WS02006245WS02006243    1.00   0.00  0.00  0.00  0.75  0.00  0.00  0.25  0.00  0.00
  WS02006247WS02006245    1.00   0.00  0.00  0.00  0.96  0.00  0.00  0.04  0.00  0.00
  WS02006248WS02006247    1.00   0.00  0.00  0.00  0.98  0.00  0.00  0.02  0.51  0.00
  WS02006249WS02006248    1.00   0.00  0.00  0.00  0.43  0.00  0.57  0.00  0.00  0.00
  WS02006251WS02006249    1.00   0.00  0.00  0.00  0.99  0.01  0.00  0.00  0.58  0.00
  WS02006252WS02006251    1.00   0.00  0.53  0.00  0.11  0.00  0.36  0.00  0.00  0.00
  WS02006256WS02006235    1.00   0.00  0.00  0.00  0.98  0.02  0.00  0.00  0.00  0.00
  WSF200WS02003060        1.00   0.00  0.08  0.00  0.49  0.43  0.00  0.00  0.62  0.00
  YS02001580YS02001583    1.00   0.23  0.53  0.00  0.24  0.00  0.00  0.00  0.62  0.00
  YS02001583YS02001586    1.00   0.40  0.31  0.00  0.29  0.00  0.00  0.00  0.62  0.00
  YS02001586YS02001590    1.00   0.13  0.00  0.00  0.47  0.04  0.00  0.37  0.35  0.00
  YS02001590YS02001593    1.00   0.13  0.01  0.00  0.16  0.00  0.71  0.00  0.00  0.00
  YS02001593YS02001596    1.00   0.13  0.00  0.00  0.18  0.01  0.00  0.68  0.02  0.00
  YS02001596YS02001600    1.00   0.13  0.00  0.00  0.24  0.01  0.00  0.62  0.04  0.00
  YS02001600YS02001601    1.00   0.13  0.01  0.00  0.86  0.00  0.00  0.00  0.57  0.00
  YS02001601YS02001602    1.00   0.13  0.01  0.00  0.87  0.00  0.00  0.00  0.00  0.00
  YS02001602YS02001605    1.00   0.13  0.00  0.00  0.87  0.00  0.00  0.00  0.00  0.00
  YS02001605YS02001607    1.00   0.13  0.00  0.00  0.87  0.00  0.00  0.00  0.00  0.00
  YS02001607YS02001610    1.00   0.13  0.00  0.00  0.86  0.00  0.00  0.00  0.01  0.00
  YS02001610YS02001613    1.00   0.13  0.00  0.00  0.87  0.00  0.00  0.00  0.00  0.00
  YS02001613YS02001616    1.00   0.13  0.00  0.00  0.87  0.00  0.00  0.00  0.00  0.00
  YS02001616YS02001619    1.00   0.13  0.00  0.00  0.87  0.00  0.00  0.00  0.00  0.00
  YS02001619YS02001622    1.00   0.13  0.00  0.00  0.87  0.00  0.00  0.00  0.27  0.00
  YS02001622YS02001625    1.00   0.13  0.00  0.00  0.87  0.00  0.00  0.00  0.03  0.00
  YS02001625YS02001629    1.00   0.13  0.04  0.00  0.21  0.00  0.62  0.00  0.00  0.00
  YS02001629YS02163301    1.00   0.14  0.01  0.00  0.85  0.00  0.00  0.00  0.00  0.00
  YS02001633YS02163601    1.00   0.00  0.01  0.00  0.99  0.00  0.00  0.00  0.14  0.00
  YS02001641YS02001644    1.00   0.00  0.01  0.00  0.99  0.00  0.00  0.00  0.00  0.00
  YS02001644YS02001647    1.00   0.00  0.16  0.00  0.84  0.00  0.00  0.00  0.00  0.00
  YS02001647YS02001649    1.00   0.00  0.16  0.00  0.57  0.27  0.00  0.00  0.55  0.00
  YS02001649YS02001757    1.00   0.00  0.00  0.00  0.70  0.30  0.00  0.00  0.41  0.00
  YS02001652YS02001649    1.00   0.00  0.00  0.00  0.97  0.03  0.00  0.00  0.71  0.00
  YS02001655YS02001652    1.00   0.00  0.00  0.00  0.23  0.01  0.00  0.76  0.05  0.00
  YS02001658YS02001655    1.00   0.00  0.14  0.00  0.70  0.16  0.00  0.00  0.64  0.00
  YS02001661YS02001658    1.00   0.14  0.00  0.00  0.54  0.32  0.00  0.00  0.64  0.00
  YS02001664YS02001661    1.00   0.13  0.00  0.00  0.78  0.09  0.00  0.00  0.83  0.00
  YS02001745YS02001748    1.00   0.00  0.00  0.00  0.15  0.00  0.00  0.85  0.04  0.00
  YS02001748YS02001751    1.00   0.00  0.00  0.00  0.86  0.14  0.00  0.00  0.72  0.00
  YS02001751YS02001754    1.00   0.00  0.00  0.00  0.21  0.01  0.00  0.78  0.03  0.00
  YS02001754YS02001757    1.00   0.00  0.00  0.00  1.00  0.00  0.00  0.00  0.77  0.00
  YS02001757CaochengTiaoxuchi    1.00   0.00  0.00  0.00  0.95  0.05  0.00  0.00  0.74  0.00
  YS02001759YS02001757    1.00   0.00  0.00  0.00  0.99  0.01  0.00  0.00  0.58  0.00
  YS02001762YS02001759    1.00   0.00  0.00  0.00  1.00  0.00  0.00  0.00  0.04  0.00
  YS02001765YS02001762    1.00   0.00  0.00  0.00  1.00  0.00  0.00  0.00  0.68  0.00
  YS02001767YS02001765    1.00   0.00  0.00  0.00  1.00  0.00  0.00  0.00  0.00  0.00
  YS02001770YS02001767    1.00   0.00  0.00  0.00  1.00  0.00  0.00  0.00  0.00  0.00
  YS02001774YS02001770    1.00   0.00  0.13  0.00  0.71  0.00  0.16  0.00  0.02  0.00
  YS02001779YS02001774    1.00   0.00  0.00  0.00  1.00  0.00  0.00  0.00  0.72  0.00
  YS02001783YS02001784    1.00   0.00  0.17  0.00  0.83  0.00  0.00  0.00  0.54  0.00
  YS02001784YS02001785    1.00   0.00  0.00  0.00  1.00  0.00  0.00  0.00  0.15  0.00
  YS02001786YS02001788    1.00   0.00  0.00  0.00  0.79  0.21  0.00  0.00  0.00  0.00
  YS02001788YS02001790    1.00   0.00  0.00  0.00  0.21  0.79  0.00  0.00  0.78  0.00
  YS02001790YS02001791    1.00   0.00  0.00  0.00  0.01  0.99  0.00  0.00  0.16  0.00
  YS02001791YS02001793    1.00   0.00  0.00  0.00  0.00  1.00  0.00  0.00  0.01  0.00
  YS02001793JiankangQianchi    1.00   0.00  0.00  0.00  0.96  0.04  0.00  0.00  0.95  0.00
  YS02001882YS02001884    1.00   0.14  0.01  0.00  0.85  0.00  0.00  0.00  0.00  0.00
  YS02001884YS02001887    1.00   0.06  0.05  0.00  0.89  0.00  0.00  0.00  0.00  0.00
  YS02001887YS02001890    1.00   0.00  0.00  0.00  0.97  0.00  0.03  0.00  0.00  0.00
  YS02001890YS02001895    1.00   0.00  0.15  0.00  0.85  0.00  0.00  0.00  0.00  0.00
  YS02001895YS02001898    1.00   0.15  0.00  0.00  0.83  0.00  0.02  0.00  0.00  0.00
  YS02001898YS02001901    1.00   0.16  0.00  0.00  0.84  0.00  0.00  0.00  0.01  0.00
  YS02001901YS02001904    1.00   0.16  0.00  0.00  0.84  0.00  0.00  0.00  0.00  0.00
  YS02001904YS02001907    1.00   0.00  0.15  0.00  0.84  0.00  0.00  0.00  0.00  0.00
  YS02001907YS02006553    1.00   0.00  0.02  0.00  0.98  0.00  0.00  0.00  0.00  0.00
  YS02001910YS02001907    1.00   0.00  0.00  0.00  0.97  0.00  0.00  0.03  0.12  0.00
  YS02001915YS02001910    1.00   0.00  0.00  0.00  0.97  0.03  0.00  0.00  0.13  0.00
  YS02001918YS02001915    1.00   0.00  0.01  0.00  0.98  0.02  0.00  0.00  0.71  0.00
  YS02001920YS02001918    1.00   0.00  0.01  0.00  0.99  0.00  0.00  0.00  0.00  0.00
  YS02001923YS02001920    1.00   0.00  0.00  0.00  1.00  0.00  0.00  0.00  0.89  0.00
  YS02001926YS02001923    1.00   0.00  0.07  0.00  0.09  0.00  0.84  0.00  0.00  0.00
  YS02001929YS02001926    1.00   0.00  0.13  0.00  0.87  0.00  0.00  0.00  0.80  0.00
  YS02006553YS02006556    1.00   0.01  0.00  0.00  0.99  0.00  0.00  0.00  0.03  0.00
  YS02006556YS02006558    1.00   0.00  0.00  0.00  1.00  0.00  0.00  0.00  0.00  0.00
  YS02006558YS02006561    1.00   0.17  0.00  0.00  0.08  0.75  0.00  0.00  0.17  0.00
  YS02006561YS02001783    1.00   0.17  0.00  0.00  0.12  0.71  0.00  0.00  0.65  0.00
  YS02163301YS02001633    1.00   0.00  0.14  0.00  0.86  0.00  0.00  0.00  0.00  0.00
  YS02163601YS02164001    1.00   0.00  0.08  0.00  0.92  0.00  0.00  0.00  0.00  0.00
  YS02164001YS02001641    1.00   0.01  0.07  0.00  0.92  0.00  0.00  0.00  0.05  0.00
  
  
  *************************
  Conduit Surcharge Summary
  *************************
  
  ----------------------------------------------------------------------------
                                                           Hours        Hours 
                         --------- Hours Full --------   Above Full   Capacity
  Conduit                Both Ends  Upstream  Dnstream   Normal Flow   Limited
  ----------------------------------------------------------------------------
  WS02003072WS02003073        0.01      0.01      0.01      1.17         0.01
  WS02004404WS02004405        0.01      0.01      0.01      2.72         0.01
  WS02004405WS02004406        0.01      0.01      0.01      0.63         0.01
  WS02006109WS02006110        0.69      0.69      2.08      0.79         0.01
  WS02006110WS02006113        0.01      0.01      2.05      0.01         0.01
  WS02006111WS02006112        0.01      0.01      2.36      0.01         0.01
  WS02006112WS02006115        0.01      0.01      0.72      0.01         0.01
  WS02006228WS02006109        2.03      2.08      2.03      2.45         2.02
  WS02006229WS02006228        2.02      2.03      2.02      2.32         2.01
  WS02006230WS02006229        2.20      2.30      2.20      3.27         2.20
  WS02006231WS02006230        0.69      0.69      0.90      2.98         0.01
  WS02006232WS02006231        0.84      0.84      2.08      0.93         0.01
  WS02006234WS02006232        1.98      1.99      2.08      0.90         0.87
  WS02006235WS02006234        1.17      1.17      1.99      2.85         0.02
  WS02006238WS02006235        2.01      2.01      2.07      0.01         0.01
  WS02006239WS02006238        2.04      2.07      2.04      2.13         1.80
  WS02006240WS02006239        2.00      2.04      2.00      2.10         1.67
  WS02006242WS02006240        2.02      2.02      2.14      2.34         0.01
  WS02006243WS02006242        2.04      2.04      2.10      0.01         0.04
  WS02006245WS02006243        2.00      2.02      2.02      1.38         1.38
  WS02006247WS02006245        2.00      2.03      2.00      2.70         1.99
  WS02006248WS02006247        1.99      1.99      2.02      0.01         0.03
  WS02006249WS02006248        1.98      1.98      1.99      2.67         0.01
  WS02006251WS02006249        1.99      2.00      1.99      2.19         1.90
  WS02006252WS02006251        2.26      2.26      2.29      2.26         0.01
  WS02006256WS02006235        2.84      2.88      6.91      1.19         0.01
  YS02001580YS02001583        0.90      0.90      0.98      0.01         0.01
  YS02001583YS02001586        0.91      0.91      1.07      0.01         0.01
  YS02001586YS02001590        1.08      1.08      1.16      0.01         0.01
  YS02001590YS02001593        1.16      1.16      1.19      1.17         0.01
  YS02001593YS02001596        1.18      1.18      1.28      0.01         0.01
  YS02001596YS02001600        1.34      1.34      1.43      0.01         0.01
  YS02001600YS02001601        1.49      1.49      1.75      0.01         0.01
  YS02001601YS02001602        1.66      1.66      1.79      1.44         0.01
  YS02001602YS02001605        1.61      1.61      1.66      2.54         0.01
  YS02001605YS02001607        1.57      1.61      1.57      1.69         1.54
  YS02001607YS02001610        1.16      1.16      1.19      0.01         0.01
  YS02001610YS02001613        1.16      1.16      1.19      0.01         0.01
  YS02001613YS02001616        1.12      1.12      1.16      0.01         0.01
  YS02001616YS02001619        1.10      1.10      1.12      0.15         0.14
  YS02001619YS02001622        1.10      1.10      1.10      1.12         1.00
  YS02001622YS02001625        1.10      1.10      1.27      0.01         0.01
  YS02001625YS02001629        1.04      1.04      1.27      0.01         0.01
  YS02001629YS02163301        1.28      1.28      1.29      0.15         0.18
  YS02001633YS02163601        1.31      1.31      1.35      0.28         0.31
  YS02001641YS02001644        1.22      1.25      1.22      1.83         1.20
  YS02001644YS02001647        1.01      1.01      1.22      0.01         0.01
  YS02001647YS02001649        1.01      1.01      1.11      0.01         0.01
  YS02001649YS02001757        1.11      1.11      1.18      0.15         0.08
  YS02001652YS02001649        0.96      0.96      1.11      0.01         0.01
  YS02001655YS02001652        0.72      0.72      0.93      0.01         0.01
  YS02001658YS02001655        0.42      0.42      0.72      0.01         0.01
  YS02001661YS02001658        0.16      0.16      0.42      0.01         0.01
  YS02001664YS02001661        0.01      0.01      0.21      0.01         0.01
  YS02001745YS02001748        0.03      0.03      0.35      0.01         0.01
  YS02001748YS02001751        0.39      0.39      0.60      0.01         0.01
  YS02001751YS02001754        0.60      0.60      0.85      0.01         0.01
  YS02001754YS02001757        0.90      0.90      1.18      0.01         0.01
  YS02001757CaochengTiaoxuchi        1.17      1.18      1.60      0.52         0.46
  YS02001759YS02001757        1.09      1.09      1.18      0.01         0.01
  YS02001762YS02001759        1.07      1.07      1.09      0.01         0.02
  YS02001765YS02001762        1.03      1.03      1.07      0.01         0.01
  YS02001767YS02001765        1.01      1.01      1.03      0.01         0.02
  YS02001770YS02001767        1.01      1.01      1.01      0.71         0.62
  YS02001774YS02001770        0.97      0.97      1.05      0.01         0.01
  YS02001779YS02001774        0.83      0.83      1.05      0.01         0.01
  YS02001783YS02001784        0.72      0.75      0.72      0.96         0.72
  YS02001784YS02001785        0.59      0.72      0.59      1.28         0.59
  YS02001786YS02001788        0.01      0.59      0.01      1.10         0.01
  YS02001790YS02001791        0.01      0.01      0.01      0.70         0.01
  YS02001793JiankangQianchi        0.01      0.01      6.85      0.01         0.01
  YS02001882YS02001884        0.68      0.68      0.69      0.01         0.01
  YS02001884YS02001887        0.72      0.72      0.74      0.01         0.01
  YS02001887YS02001890        0.76      0.76      0.77      0.22         0.01
  YS02001890YS02001895        0.67      0.67      0.79      0.01         0.01
  YS02001895YS02001898        0.66      0.66      0.67      0.01         0.01
  YS02001898YS02001901        0.67      0.67      0.72      0.01         0.01
  YS02001901YS02001904        0.71      0.71      0.72      0.01         0.01
  YS02001904YS02001907        0.71      0.71      1.08      0.01         0.01
  YS02001907YS02006553        1.31      1.31      1.38      0.01         0.01
  YS02001910YS02001907        0.79      0.79      1.06      0.11         0.12
  YS02001915YS02001910        0.68      0.68      0.79      0.01         0.01
  YS02001918YS02001915        0.58      0.58      0.68      0.01         0.01
  YS02001920YS02001918        0.58      0.58      0.59      0.01         0.01
  YS02001923YS02001920        0.53      0.53      0.59      0.01         0.01
  YS02001926YS02001923        0.24      0.24      0.27      0.06         0.01
  YS02001929YS02001926        0.13      0.13      0.27      0.01         0.01
  YS02006553YS02006556        0.91      0.91      1.08      0.01         0.01
  YS02006556YS02006558        1.00      1.00      1.11      0.01         0.01
  YS02006558YS02006561        0.62      0.89      0.62      1.21         0.62
  YS02006561YS02001783        0.54      0.54      0.75      0.01         0.01
  YS02163301YS02001633        1.29      1.29      1.33      0.01         0.01
  YS02163601YS02164001        1.25      1.25      1.35      0.13         0.01
  YS02164001YS02001641        1.25      1.25      1.25      0.83         0.76
  
  
  ***************
  Pumping Summary
  ***************
  
  ---------------------------------------------------------------------------------------------------------
                                                  Min       Avg       Max     Total     Power    % Time Off
                        Percent   Number of      Flow      Flow      Flow    Volume     Usage    Pump Curve
  Pump                 Utilized   Start-Ups       LPS       LPS       LPS  10^6 ltr     Kw-hr    Low   High
  ---------------------------------------------------------------------------------------------------------
  CC-R1                   27.16          20      0.00    683.00    683.00     5.342     99.63    0.0   29.4
  CC-R2                   24.32          29      0.00    683.00    683.00     4.784     89.93    0.0   25.1
  CC-S1                   33.70          27      0.00    200.00    200.00     1.941     11.03    0.0    0.0
  CC-S2                   30.01          22      0.00    200.00    200.00     1.728      9.53    0.0    0.0
  JK-R1                    4.49          22      0.00   1000.00   1000.00     1.292     12.27    0.0    0.0
  JK-R2                    9.40          20      0.00   1000.00   1000.00     2.708     26.65    0.0    0.0
  JK-S                    14.46          31      0.00    300.00    300.00     1.250     20.56    0.0    0.0
  

  Analysis begun on:  Mon Dec 30 10:20:20 2024
  Analysis ended on:  Mon Dec 30 10:20:22 2024
  Total elapsed time: 00:00:02