
  EPA STORM WATER MANAGEMENT MODEL - VERSION 5.2 (Build 5.2.4)
  PYSWMM TOOLKIT API - VERSION v1.0 (2023-11-27)
  ------------------------------------------------------------

  WARNING 04: minimum elevation drop used for Conduit WS02004404WS02004405
  WARNING 03: negative offset ignored for Link YS02001904YS02001907
  
  ****************
  Analysis Options
  ****************
  Flow Units ............... LPS
  Process Models:
    Rainfall/Runoff ........ YES
    RDII ................... NO
    Snowmelt ............... NO
    Groundwater ............ NO
    Flow Routing ........... YES
    Ponding Allowed ........ NO
    Water Quality .......... NO
  Infiltration Method ...... HORTON
  Flow Routing Method ...... DYNWAVE
  Surcharge Method ......... EXTRAN
  Starting Date ............ 08/28/2015 08:00:00
  Ending Date .............. 08/28/2015 16:00:00
  Antecedent Dry Days ...... 8.0
  Report Time Step ......... 00:01:00
  Wet Time Step ............ 00:01:00
  Dry Time Step ............ 00:01:00
  Routing Time Step ........ 30.00 sec
  Variable Time Step ....... YES
  Maximum Trials ........... 8
  Number of Threads ........ 4
  Head Tolerance ........... 0.001500 m
  
  
  **************************        Volume         Depth
  Runoff Quantity Continuity     hectare-m            mm
  **************************     ---------       -------
  Total Precipitation ......         3.129        94.320
  Evaporation Loss .........         0.000         0.000
  Infiltration Loss ........         0.105         3.153
  Surface Runoff ...........         2.992        90.187
  Final Storage ............         0.033         0.996
  Continuity Error (%) .....        -0.018
  
  
  **************************        Volume        Volume
  Flow Routing Continuity        hectare-m      10^6 ltr
  **************************     ---------     ---------
  Dry Weather Inflow .......         0.025         0.251
  Wet Weather Inflow .......         2.991        29.915
  Groundwater Inflow .......         0.000         0.000
  RDII Inflow ..............         0.000         0.000
  External Inflow ..........         0.083         0.834
  External Outflow .........         1.965        19.649
  Flooding Loss ............         1.204        12.037
  Evaporation Loss .........         0.000         0.000
  Exfiltration Loss ........         0.000         0.000
  Initial Stored Volume ....         0.243         2.431
  Final Stored Volume ......         0.182         1.818
  Continuity Error (%) .....        -0.219
  
  
  *************************
  Highest Continuity Errors
  *************************
  Node YS02001583 (-5.49%)
  Node YS02001884 (4.88%)
  Node WS02006256 (-1.74%)
  
  
  ***************************
  Time-Step Critical Elements
  ***************************
  Link WS02006252WS02006251 (29.03%)
  Link WS02006238WS02006235 (17.78%)
  Link WS02004404WS02004405 (14.94%)
  Link YS02001791YS02001793 (11.08%)
  Link WS02006235WS02006234 (9.68%)
  
  
  ********************************
  Highest Flow Instability Indexes
  ********************************
  Link WS02006113WS02006111 (38)
  Link WS02006238WS02006235 (25)
  Link WS02006111WS02006112 (24)
  Link WS02006252WS02006251 (23)
  Link WS02006256WS02006235 (20)
  
  
  *********************************
  Most Frequent Nonconverging Nodes
  *********************************
  Node CC-1 (15.24%)
  Node CC-2 (15.24%)
  Node JK-1 (15.24%)
  Node JK-2 (15.24%)
  Node WSC (15.24%)
  
  
  *************************
  Routing Time Step Summary
  *************************
  Minimum Time Step           :     0.00 sec
  Average Time Step           :     2.48 sec
  Maximum Time Step           :     6.43 sec
  % of Time in Steady State   :     0.00
  Average Iterations per Step :     3.54
  % of Steps Not Converging   :    15.24
  Time Step Frequencies       :
     30.000 - 13.228 sec      :     0.00 %
     13.228 -  5.833 sec      :    11.52 %
      5.833 -  2.572 sec      :    24.94 %
      2.572 -  1.134 sec      :    29.07 %
      1.134 -  0.500 sec      :    34.47 %
  
  
  ***************************
  Subcatchment Runoff Summary
  ***************************
  
  ------------------------------------------------------------------------------------------------------------------------------
                            Total      Total      Total      Total     Imperv       Perv      Total       Total     Peak  Runoff
                           Precip      Runon       Evap      Infil     Runoff     Runoff     Runoff      Runoff   Runoff   Coeff
  Subcatchment                 mm         mm         mm         mm         mm         mm         mm    10^6 ltr      LPS
  ------------------------------------------------------------------------------------------------------------------------------
  sub60                     94.32       0.00       0.00       1.89      81.80       9.43      91.23        1.20   719.70   0.967
  sub61                     94.32       0.00       0.00       2.74      77.16      13.30      90.46        1.66  1000.60   0.959
  sub62                     94.32       0.00       0.00       1.26      85.49       6.29      91.78        2.51  1428.95   0.973
  sub63                     94.32       0.00       0.00       5.05      66.00      22.30      88.30        2.00  1153.43   0.936
  sub64                     94.32       0.00       0.00       2.55      78.97      11.60      90.56        2.18  1183.39   0.960
  sub65                     94.32       0.00       0.00       2.21      80.81      10.05      90.86        2.50  1325.63   0.963
  sub66                     94.32       0.00       0.00       6.26      65.89      21.09      86.98        4.06  1816.29   0.922
  sub67                     94.32       0.00       0.00       1.21      85.53       6.34      91.87        1.71  1072.01   0.974
  sub68                     94.32       0.00       0.00       2.27      79.93      10.94      90.87        2.50  1460.48   0.963
  sub69                     94.32       0.00       0.00       2.05      80.06      12.10      92.16        3.41  1763.29   0.977
  sub70                     94.32       0.00       0.00       6.82      62.09      25.25      87.33        2.52  1026.46   0.926
  sub71                     94.32       0.00       0.00       1.29      85.45       6.26      91.70        2.40  1277.08   0.972
  sub72                     94.32       0.00       0.00       1.15      86.31       5.45      91.77        1.26   629.72   0.973
  
  
  ******************
  Node Depth Summary
  ******************
  
  ---------------------------------------------------------------------------------
                                 Average  Maximum  Maximum  Time of Max    Reported
                                   Depth    Depth      HGL   Occurrence   Max Depth
  Node                 Type       Meters   Meters   Meters  days hr:min      Meters
  ---------------------------------------------------------------------------------
  WS02003060           JUNCTION     0.23     0.38     5.32     0  02:59        0.38
  WS02003066           JUNCTION     0.19     0.30     5.85     0  03:00        0.30
  WS02003067           JUNCTION     0.49     0.70     6.02     0  03:00        0.70
  WS02003069           JUNCTION     0.25     0.43     5.01     0  02:59        0.43
  WS02003072           JUNCTION     0.31     0.50     4.87     0  03:00        0.50
  WS02003073           JUNCTION     0.18     0.30     4.36     0  03:02        0.30
  WS02004401           JUNCTION     0.58     0.85     6.85     0  02:52        0.85
  WS02004402           JUNCTION     0.61     0.88     6.84     0  02:54        0.88
  WS02004403           JUNCTION     0.63     0.89     6.82     0  02:54        0.89
  WS02004404           JUNCTION     0.71     0.96     6.81     0  02:54        0.96
  WS02004405           JUNCTION     0.71     0.96     6.81     0  02:54        0.96
  WS02004406           JUNCTION     0.72     0.96     6.79     0  02:54        0.96
  WS02004407           JUNCTION     0.17     0.30     6.61     0  02:54        0.30
  WS02004409           JUNCTION     0.38     0.67     6.44     0  02:58        0.67
  WS02004410           JUNCTION     0.40     0.68     6.40     0  02:59        0.68
  WS02004411           JUNCTION     0.43     0.69     6.37     0  02:59        0.69
  WS02004412           JUNCTION     0.45     0.70     6.34     0  02:59        0.70
  WS02004413           JUNCTION     0.60     0.86     6.33     0  03:00        0.86
  WS02006109           JUNCTION     0.65     1.23     7.84     0  02:41        0.98
  WS02006110           JUNCTION     0.65     1.29     7.88     0  02:41        0.93
  WS02006111           JUNCTION     0.17     0.29     6.99     0  02:59        0.29
  WS02006112           JUNCTION     0.74     1.06     6.95     0  02:13        1.06
  WS02006113           JUNCTION     0.27     0.46     7.35     0  02:03        0.46
  WS02006115           JUNCTION     0.47     0.75     6.89     0  02:52        0.75
  WS02006116           JUNCTION     0.55     0.83     6.87     0  02:53        0.83
  WS02006228           JUNCTION     0.65     1.36     8.01     0  03:10        1.02
  WS02006229           JUNCTION     0.62     1.43     8.12     0  03:10        1.04
  WS02006230           JUNCTION     0.63     1.70     8.45     0  03:10        1.14
  WS02006231           JUNCTION     0.43     1.32     8.44     0  03:10        0.89
  WS02006232           JUNCTION     0.57     1.42     8.46     0  03:10        1.10
  WS02006234           JUNCTION     0.50     1.46     8.62     0  02:15        1.13
  WS02006235           JUNCTION     0.54     1.46     8.62     0  02:15        1.23
  WS02006238           JUNCTION     0.57     2.15     9.29     0  02:02        2.15
  WS02006239           JUNCTION     0.53     2.03     9.24     0  02:02        2.03
  WS02006240           JUNCTION     0.50     2.10     9.39     0  02:02        2.10
  WS02006242           JUNCTION     0.57     1.55     8.82     0  02:02        1.55
  WS02006243           JUNCTION     0.48     1.48     8.90     0  02:02        1.48
  WS02006245           JUNCTION     0.48     1.56     9.04     0  02:02        1.56
  WS02006247           JUNCTION     0.50     1.47     8.97     0  02:02        1.47
  WS02006248           JUNCTION     0.47     1.10     8.69     0  01:47        1.10
  WS02006249           JUNCTION     0.50     1.09     8.69     0  01:47        1.09
  WS02006251           JUNCTION     0.50     1.36     9.03     0  01:47        1.21
  WS02006252           JUNCTION     0.35     1.50     9.74     0  00:00        0.72
  WS02006256           JUNCTION     1.14     2.35     9.28     0  00:00        2.35
  WSF200               JUNCTION     0.16     0.29     5.52     0  02:58        0.29
  YS02001580           JUNCTION     0.14     1.05     9.59     0  01:46        0.77
  YS02001583           JUNCTION     0.18     1.00     9.50     0  01:46        0.82
  YS02001586           JUNCTION     0.29     1.13     9.30     0  01:46        1.13
  YS02001590           JUNCTION     0.41     1.40     9.26     0  01:46        1.40
  YS02001593           JUNCTION     0.34     1.40     9.26     0  02:02        1.29
  YS02001596           JUNCTION     0.47     1.76     9.18     0  02:02        1.67
  YS02001600           JUNCTION     0.56     1.87     9.00     0  01:46        1.87
  YS02001601           JUNCTION     0.77     2.06     8.90     0  01:46        2.06
  YS02001602           JUNCTION     0.66     1.87     8.77     0  01:50        1.87
  YS02001605           JUNCTION     0.61     1.78     8.68     0  01:59        1.78
  YS02001607           JUNCTION     0.58     1.68     8.53     0  02:02        1.68
  YS02001610           JUNCTION     0.62     1.68     8.48     0  01:51        1.68
  YS02001613           JUNCTION     0.58     1.67     8.52     0  02:02        1.67
  YS02001616           JUNCTION     0.51     1.61     8.52     0  01:58        1.61
  YS02001619           JUNCTION     0.49     1.61     8.54     0  01:58        1.61
  YS02001622           JUNCTION     0.48     1.62     8.52     0  02:02        1.62
  YS02001625           JUNCTION     0.73     1.78     8.38     0  01:51        1.78
  YS02001629           JUNCTION     0.62     1.85     8.40     0  01:52        1.85
  YS02001633           JUNCTION     0.70     2.08     8.53     0  01:59        2.08
  YS02001641           JUNCTION     0.67     1.97     8.40     0  02:01        1.97
  YS02001644           JUNCTION     0.67     1.92     8.35     0  01:54        1.92
  YS02001647           JUNCTION     0.44     1.81     8.42     0  02:02        1.81
  YS02001649           JUNCTION     0.51     2.05     8.44     0  01:59        2.05
  YS02001652           JUNCTION     0.38     1.97     8.56     0  01:59        1.97
  YS02001655           JUNCTION     0.30     1.76     8.61     0  01:59        1.76
  YS02001658           JUNCTION     0.22     1.70     8.84     0  02:02        1.70
  YS02001661           JUNCTION     0.22     1.29     8.69     0  02:01        1.26
  YS02001664           JUNCTION     0.09     0.76     8.69     0  02:01        0.75
  YS02001745           JUNCTION     0.12     0.93     8.44     0  02:01        0.92
  YS02001748           JUNCTION     0.21     1.52     8.60     0  01:55        1.33
  YS02001751           JUNCTION     0.26     1.58     8.46     0  02:02        1.57
  YS02001754           JUNCTION     0.34     1.84     8.45     0  02:02        1.81
  YS02001757           JUNCTION     0.53     2.16     8.42     0  02:02        2.16
  YS02001759           JUNCTION     0.47     2.21     8.57     0  02:01        2.21
  YS02001762           JUNCTION     0.46     2.15     8.55     0  02:02        2.11
  YS02001765           JUNCTION     0.43     2.10     8.55     0  02:02        2.10
  YS02001767           JUNCTION     0.43     2.03     8.52     0  02:02        2.03
  YS02001770           JUNCTION     0.44     1.95     8.44     0  01:59        1.95
  YS02001774           JUNCTION     0.50     2.05     8.47     0  02:02        2.03
  YS02001779           JUNCTION     0.32     1.68     8.37     0  01:52        1.68
  YS02001783           JUNCTION     0.33     1.29     7.43     0  01:51        1.25
  YS02001784           JUNCTION     0.34     1.16     7.22     0  01:59        1.14
  YS02001786           JUNCTION     0.28     0.90     6.93     0  01:59        0.88
  YS02001788           JUNCTION     0.21     0.63     6.60     0  01:59        0.62
  YS02001790           JUNCTION     0.24     0.73     6.38     0  01:59        0.73
  YS02001791           JUNCTION     0.15     0.44     5.91     0  01:59        0.43
  YS02001793           JUNCTION     0.08     0.30     5.13     0  02:05        0.30
  YS02001882           JUNCTION     0.41     1.82     8.53     0  02:01        1.82
  YS02001884           JUNCTION     0.50     1.86     8.47     0  02:01        1.86
  YS02001887           JUNCTION     0.58     1.98     8.52     0  02:02        1.98
  YS02001890           JUNCTION     0.61     1.81     8.32     0  01:51        1.81
  YS02001895           JUNCTION     0.38     1.63     8.37     0  02:02        1.60
  YS02001898           JUNCTION     0.39     1.77     8.51     0  02:02        1.77
  YS02001901           JUNCTION     0.50     1.71     8.32     0  02:02        1.70
  YS02001904           JUNCTION     0.48     1.66     8.29     0  02:02        1.63
  YS02001907           JUNCTION     0.80     1.96     8.25     0  01:51        1.96
  YS02001910           JUNCTION     0.61     2.03     8.54     0  02:01        2.03
  YS02001915           JUNCTION     0.42     2.00     8.72     0  01:59        2.00
  YS02001918           JUNCTION     0.25     1.81     8.88     0  01:52        1.67
  YS02001920           JUNCTION     0.33     2.14     9.15     0  02:02        2.14
  YS02001923           JUNCTION     0.19     2.03     9.29     0  01:52        1.51
  YS02001926           JUNCTION     0.22     1.90     9.35     0  01:52        1.90
  YS02001929           JUNCTION     0.14     1.78     9.47     0  01:52        1.12
  YS02006553           JUNCTION     0.80     2.05     8.33     0  01:59        2.05
  YS02006556           JUNCTION     0.77     2.15     8.47     0  01:59        2.15
  YS02006558           JUNCTION     0.81     2.50     8.77     0  02:02        2.50
  YS02006561           JUNCTION     0.21     1.00     7.66     0  01:51        0.91
  YS02163301           JUNCTION     0.65     2.03     8.55     0  02:02        2.03
  YS02163601           JUNCTION     0.73     2.08     8.48     0  02:02        2.08
  YS02164001           JUNCTION     0.66     2.10     8.56     0  02:02        2.10
  CC-1                 OUTFALL      0.00     0.00     0.00     0  00:00        0.00
  CC-2                 OUTFALL      0.00     0.00     0.00     0  00:00        0.00
  JK-1                 OUTFALL      0.00     0.00     0.00     0  00:00        0.00
  JK-2                 OUTFALL      0.00     0.00     0.00     0  00:00        0.00
  WSC                  OUTFALL      0.18     0.30     0.97     0  03:02        0.30
  CC-storage           STORAGE      0.86     1.84     7.34     0  02:39        1.84
  JK-storage           STORAGE      1.66     4.24     5.04     0  01:56        4.20
  
  
  *******************
  Node Inflow Summary
  *******************
  
  -------------------------------------------------------------------------------------------------
                                  Maximum  Maximum                  Lateral       Total        Flow
                                  Lateral    Total  Time of Max      Inflow      Inflow     Balance
                                   Inflow   Inflow   Occurrence      Volume      Volume       Error
  Node                 Type           LPS      LPS  days hr:min    10^6 ltr    10^6 ltr     Percent
  -------------------------------------------------------------------------------------------------
  WS02003060           JUNCTION     16.53   553.36     0  02:58       0.476        5.34       0.045
  WS02003066           JUNCTION      0.00   536.46     0  03:00           0        4.87       0.029
  WS02003067           JUNCTION      0.00   536.42     0  03:00           0        4.87       0.087
  WS02003069           JUNCTION      0.32   553.38     0  02:59     0.00922        5.35       0.078
  WS02003072           JUNCTION      0.00   553.11     0  03:00           0        5.34       0.136
  WS02003073           JUNCTION      1.82   554.81     0  03:01      0.0524        5.39       0.110
  WS02004401           JUNCTION      0.00   539.14     0  02:52           0        4.98       0.208
  WS02004402           JUNCTION      0.00   538.77     0  02:52           0        4.96       0.211
  WS02004403           JUNCTION      0.00   537.94     0  02:54           0        4.95       0.206
  WS02004404           JUNCTION      0.16   538.12     0  02:53     0.00467        4.95       0.176
  WS02004405           JUNCTION      0.04   538.30     0  02:54      0.0011        4.94       0.249
  WS02004406           JUNCTION      0.00   538.43     0  02:54           0        4.93       0.427
  WS02004407           JUNCTION      0.00   537.72     0  02:54           0        4.91       0.024
  WS02004409           JUNCTION      0.00   537.33     0  02:54           0        4.91       0.056
  WS02004410           JUNCTION      0.00   536.98     0  02:55           0         4.9       0.093
  WS02004411           JUNCTION      0.00   536.70     0  02:55           0         4.9       0.117
  WS02004412           JUNCTION      0.00   536.62     0  02:58           0        4.89       0.156
  WS02004413           JUNCTION      0.00   536.69     0  02:59           0        4.89       0.280
  WS02006109           JUNCTION      1.23   561.64     0  03:11      0.0354        5.02       0.164
  WS02006110           JUNCTION      0.00   561.03     0  03:11           0        5.02       0.144
  WS02006111           JUNCTION      0.00   560.99     0  03:13           0        5.01       0.015
  WS02006112           JUNCTION      0.00   542.67     0  02:59           0        5.01       0.410
  WS02006113           JUNCTION      0.00   566.07     0  03:11           0        5.01       0.039
  WS02006115           JUNCTION      0.00   548.79     0  02:00           0        4.99       0.135
  WS02006116           JUNCTION      0.00   540.24     0  02:52           0        4.98       0.091
  WS02006228           JUNCTION      0.00   560.27     0  03:11           0        4.99       0.080
  WS02006229           JUNCTION      0.00   559.82     0  03:11           0           5       0.102
  WS02006230           JUNCTION     10.28   589.75     0  02:15       0.296           5       0.112
  WS02006231           JUNCTION      0.00   580.29     0  02:02           0        4.71      -0.050
  WS02006232           JUNCTION      0.00   581.03     0  02:02           0        4.71       0.175
  WS02006234           JUNCTION      0.00   577.35     0  02:02           0         4.7      -0.302
  WS02006235           JUNCTION      0.00   571.23     0  02:02           0         4.8       0.298
  WS02006238           JUNCTION      0.00   431.36     0  03:46           0        3.78      -0.092
  WS02006239           JUNCTION      0.00   429.64     0  03:26           0        3.71      -0.057
  WS02006240           JUNCTION      0.00   427.25     0  03:46           0        3.68      -0.030
  WS02006242           JUNCTION      0.00   427.02     0  03:26           0        3.67      -0.001
  WS02006243           JUNCTION      0.00   425.81     0  03:26           0        3.66      -0.136
  WS02006245           JUNCTION      0.00   424.31     0  03:46           0        3.68       0.409
  WS02006247           JUNCTION      0.00   423.97     0  03:46           0        3.68       0.004
  WS02006248           JUNCTION      0.00   424.02     0  03:26           0        3.68      -0.019
  WS02006249           JUNCTION      0.00   459.02     0  00:00           0        3.92       0.489
  WS02006251           JUNCTION      0.08   406.98     0  01:47     0.00222        3.92       0.029
  WS02006252           JUNCTION      0.00   400.00     0  00:00           0        3.91      -0.334
  WS02006256           JUNCTION      0.00   300.00     0  00:00           0        1.48      -1.711
  WSF200               JUNCTION      0.00   536.50     0  03:00           0        4.87       0.010
  YS02001580           JUNCTION      0.00    74.56     0  01:46           0     0.00426       2.611
  YS02001583           JUNCTION      0.00   123.59     0  01:46           0      0.0154      -5.201
  YS02001586           JUNCTION   1026.46  1026.52     0  02:04        2.52        2.54       0.045
  YS02001590           JUNCTION      0.00   342.83     0  02:02           0         1.7      -0.022
  YS02001593           JUNCTION      0.00   334.39     0  02:02           0         1.7       0.003
  YS02001596           JUNCTION      0.00   318.54     0  02:02           0         1.7      -0.001
  YS02001600           JUNCTION      0.00   318.65     0  02:02           0         1.7       0.009
  YS02001601           JUNCTION   1763.29  2080.93     0  02:03        3.41        5.11       0.013
  YS02001602           JUNCTION      0.00   499.26     0  01:45           0        2.74       0.015
  YS02001605           JUNCTION      0.00   499.24     0  01:45           0        2.56       0.024
  YS02001607           JUNCTION      0.00   498.26     0  01:45           0        2.56       0.077
  YS02001610           JUNCTION      0.00   953.90     0  02:06           0        3.14       0.075
  YS02001613           JUNCTION      0.00   618.09     0  02:06           0        2.41       0.068
  YS02001616           JUNCTION      0.00   618.16     0  02:06           0        2.41       0.013
  YS02001619           JUNCTION   1816.29  1816.29     0  02:03        4.06        5.88       0.000
  YS02001622           JUNCTION      0.00  1053.94     0  02:05           0        5.25      -0.004
  YS02001625           JUNCTION      0.00  1505.01     0  02:06           0        5.69       0.177
  YS02001629           JUNCTION      0.00   920.41     0  01:50           0        4.05       0.011
  YS02001633           JUNCTION   1325.83  1341.81     0  01:50        2.51        6.03       0.057
  YS02001641           JUNCTION      0.00  1340.82     0  01:50           0        5.49       0.052
  YS02001644           JUNCTION   1183.43  1892.58     0  02:02        2.18        7.67       0.043
  YS02001647           JUNCTION      0.00  1715.42     0  01:50           0        6.53       0.005
  YS02001649           JUNCTION      0.00  1932.94     0  01:51           0        8.54       0.003
  YS02001652           JUNCTION      0.00  1194.27     0  02:02           0        2.01      -0.067
  YS02001655           JUNCTION      0.15  1189.46     0  02:02     0.00443        2.01      -0.051
  YS02001658           JUNCTION      0.00  1196.15     0  02:02           0        2.01      -0.019
  YS02001661           JUNCTION      0.00  1204.18     0  02:02           0        2.01       0.017
  YS02001664           JUNCTION   1153.43  1153.43     0  02:02           2           2      -0.006
  YS02001745           JUNCTION    719.70   719.70     0  02:02         1.2         1.2       0.124
  YS02001748           JUNCTION      0.04   802.02     0  02:02      0.0013         1.2      -0.182
  YS02001751           JUNCTION      0.01   765.21     0  02:02    0.000317         1.2       0.057
  YS02001754           JUNCTION      0.26   735.09     0  02:02     0.00749        1.21      -0.109
  YS02001757           JUNCTION      0.00  3296.09     0  02:00           0        13.4       0.024
  YS02001759           JUNCTION   1000.64  1404.85     0  02:01        1.66        3.66      -0.009
  YS02001762           JUNCTION      0.00   734.82     0  01:56           0        1.99       0.003
  YS02001765           JUNCTION      0.00   734.77     0  01:56           0        1.99      -0.005
  YS02001767           JUNCTION      0.54   735.38     0  01:56      0.0154        1.99       0.002
  YS02001770           JUNCTION   1429.10  1429.10     0  02:02        2.52        2.56      -0.015
  YS02001774           JUNCTION      0.00   885.02     0  02:02           0       0.577       0.192
  YS02001779           JUNCTION      0.01   850.85     0  02:03    0.000144        0.53      -0.080
  YS02001783           JUNCTION      0.00  1173.80     0  01:59           0        5.23       0.004
  YS02001784           JUNCTION      1.06  1173.51     0  01:59      0.0305        5.26       0.009
  YS02001786           JUNCTION      0.06  1175.09     0  01:59     0.00162        5.26       0.014
  YS02001788           JUNCTION      0.07  1176.67     0  01:59     0.00204        5.26       0.006
  YS02001790           JUNCTION      0.15  1180.55     0  02:00     0.00446        5.26       0.032
  YS02001791           JUNCTION      0.00  1297.67     0  02:00           0        5.26      -0.035
  YS02001793           JUNCTION      0.00  1265.31     0  02:00           0        5.26       0.002
  YS02001882           JUNCTION      0.00    32.54     0  01:49           0      0.0134       3.893
  YS02001884           JUNCTION      0.00    42.50     0  01:48           0      0.0497       5.130
  YS02001887           JUNCTION   1072.46  1084.94     0  02:01        1.72        1.76       0.245
  YS02001890           JUNCTION      0.00  1090.98     0  02:01           0        1.71       0.292
  YS02001895           JUNCTION      0.00   564.22     0  02:02           0        1.46       0.138
  YS02001898           JUNCTION      0.00   523.95     0  02:02           0        1.46       0.003
  YS02001901           JUNCTION      0.00   517.58     0  02:01           0        1.46       0.229
  YS02001904           JUNCTION      0.00   518.05     0  02:02           0        1.47       0.185
  YS02001907           JUNCTION      0.00  2731.07     0  02:02           0        5.28       0.340
  YS02001910           JUNCTION      0.00  1917.98     0  02:02           0        3.74       0.191
  YS02001915           JUNCTION   1277.10  1916.79     0  02:02         2.4        3.77       0.039
  YS02001918           JUNCTION      0.00   640.45     0  02:02           0        1.39      -0.008
  YS02001920           JUNCTION      2.87   642.73     0  02:02      0.0827        1.38       0.063
  YS02001923           JUNCTION      0.04   643.61     0  02:02     0.00109        1.28      -0.086
  YS02001926           JUNCTION      0.05   631.81     0  02:03      0.0015        1.27      -0.031
  YS02001929           JUNCTION    629.72   629.72     0  02:03        1.26        1.26      -0.058
  YS02006553           JUNCTION      0.00   794.35     0  02:25           0         2.9       0.413
  YS02006556           JUNCTION      0.00   794.27     0  02:25           0        2.91       0.270
  YS02006558           JUNCTION   1461.36  1461.36     0  02:02        2.53        5.34       0.067
  YS02006561           JUNCTION      0.00  1171.99     0  01:59           0        5.23      -0.005
  YS02163301           JUNCTION      0.00   921.64     0  01:50           0        4.05       0.036
  YS02163601           JUNCTION      0.11  1342.23     0  01:50     0.00317        5.49       0.087
  YS02164001           JUNCTION      0.00  1341.25     0  01:50           0        5.49       0.037
  CC-1                 OUTFALL       0.00   683.00     0  00:00           0         5.3       0.000
  CC-2                 OUTFALL       0.00   683.00     0  00:00           0        5.06       0.000
  JK-1                 OUTFALL       0.00  1000.00     0  00:00           0        2.69       0.000
  JK-2                 OUTFALL       0.00  1000.00     0  00:00           0        1.21       0.000
  WSC                  OUTFALL       0.00   554.78     0  03:02           0        5.38       0.000
  CC-storage           STORAGE       0.00  3295.08     0  02:00           0        15.6      -0.196
  JK-storage           STORAGE       0.00  1228.90     0  01:53           0        5.41      -0.297
  
  
  **********************
  Node Surcharge Summary
  **********************
  
  Surcharging occurs when water rises above the top of the highest conduit.
  ---------------------------------------------------------------------
                                               Max. Height   Min. Depth
                                   Hours       Above Crown    Below Rim
  Node                 Type      Surcharged         Meters       Meters
  ---------------------------------------------------------------------
  WS02006109           JUNCTION        2.34          0.407        1.413
  WS02006110           JUNCTION        0.75          0.380        1.470
  WS02006112           JUNCTION        0.79          0.063        1.617
  WS02006228           JUNCTION        2.33          0.531        1.669
  WS02006229           JUNCTION        2.36          0.630        1.820
  WS02006230           JUNCTION        0.77          0.621        0.949
  WS02006231           JUNCTION        0.89          0.607        0.923
  WS02006232           JUNCTION        2.41          0.719        0.761
  WS02006234           JUNCTION        1.29          0.740        0.500
  WS02006235           JUNCTION        2.32          0.746        0.544
  WS02006238           JUNCTION        2.37          1.430        0.000
  WS02006239           JUNCTION        2.26          1.290        0.000
  WS02006240           JUNCTION        2.23          1.390        0.000
  WS02006242           JUNCTION        2.25          0.820        0.000
  WS02006243           JUNCTION        2.23          0.770        0.000
  WS02006245           JUNCTION        2.23          0.850        0.000
  WS02006247           JUNCTION        2.23          0.760        0.000
  WS02006248           JUNCTION        2.22          0.380        0.000
  WS02006249           JUNCTION        2.22          0.390        0.000
  WS02006251           JUNCTION        0.95          0.330        0.850
  WS02006252           JUNCTION        2.43          1.100        0.000
  WS02006256           JUNCTION        7.08          2.050        0.000
  YS02001580           JUNCTION        0.94          0.450        0.000
  YS02001583           JUNCTION        0.95          0.360        0.140
  YS02001586           JUNCTION        1.13          0.510        0.000
  YS02001590           JUNCTION        1.23          0.750        0.000
  YS02001593           JUNCTION        1.23          0.781        0.059
  YS02001596           JUNCTION        1.37          1.028        0.042
  YS02001600           JUNCTION        1.51          1.190        0.000
  YS02001601           JUNCTION        1.78          1.440        0.000
  YS02001602           JUNCTION        1.69          1.270        0.000
  YS02001605           JUNCTION        1.65          1.180        0.000
  YS02001607           JUNCTION        1.24          0.680        0.000
  YS02001610           JUNCTION        1.27          0.680        0.000
  YS02001613           JUNCTION        1.24          0.674        0.026
  YS02001616           JUNCTION        1.18          0.610        0.000
  YS02001619           JUNCTION        1.17          0.610        0.000
  YS02001622           JUNCTION        1.17          0.620        0.000
  YS02001625           JUNCTION        1.36          0.780        0.000
  YS02001629           JUNCTION        1.10          0.470        0.000
  YS02001633           JUNCTION        1.39          1.060        0.000
  YS02001641           JUNCTION        1.34          0.965        0.135
  YS02001644           JUNCTION        1.31          0.920        0.000
  YS02001647           JUNCTION        1.07          0.807        0.093
  YS02001649           JUNCTION        1.22          1.050        0.000
  YS02001652           JUNCTION        0.99          0.936        0.194
  YS02001655           JUNCTION        0.78          0.760        0.440
  YS02001658           JUNCTION        0.42          0.699        0.601
  YS02001661           JUNCTION        0.14          0.217        1.173
  YS02001748           JUNCTION        0.32          0.445        0.745
  YS02001751           JUNCTION        0.58          0.579        0.621
  YS02001754           JUNCTION        0.89          0.789        0.361
  YS02001757           JUNCTION        1.27          1.159        0.051
  YS02001759           JUNCTION        1.19          1.210        0.000
  YS02001762           JUNCTION        1.17          1.150        0.000
  YS02001765           JUNCTION        1.12          1.100        0.000
  YS02001767           JUNCTION        1.08          1.030        0.000
  YS02001770           JUNCTION        1.04          0.920        0.000
  YS02001774           JUNCTION        1.15          1.050        0.000
  YS02001779           JUNCTION        0.87          0.680        0.000
  YS02001783           JUNCTION        0.79          0.488        1.112
  YS02001784           JUNCTION        0.76          0.355        1.135
  YS02001786           JUNCTION        0.63          0.101        1.329
  YS02001882           JUNCTION        0.72          0.815        0.015
  YS02001884           JUNCTION        0.73          0.795        0.075
  YS02001887           JUNCTION        0.78          0.931        0.019
  YS02001890           JUNCTION        0.80          0.760        0.000
  YS02001895           JUNCTION        0.70          0.628        0.122
  YS02001898           JUNCTION        0.70          0.740        0.000
  YS02001901           JUNCTION        0.76          0.709        0.161
  YS02001904           JUNCTION        0.75          0.665        0.185
  YS02001907           JUNCTION        1.08          0.950        0.000
  YS02001910           JUNCTION        0.83          1.031        0.069
  YS02001915           JUNCTION        0.71          1.000        0.000
  YS02001918           JUNCTION        0.61          0.810        0.000
  YS02001920           JUNCTION        0.62          1.140        0.000
  YS02001923           JUNCTION        0.22          0.820        0.000
  YS02001926           JUNCTION        0.27          0.900        0.000
  YS02001929           JUNCTION        0.10          0.780        0.000
  YS02006553           JUNCTION        1.11          1.045        0.145
  YS02006556           JUNCTION        0.96          1.115        0.235
  YS02006558           JUNCTION        0.94          1.400        0.000
  YS02006561           JUNCTION        0.57          0.197        0.953
  YS02163301           JUNCTION        1.37          1.030        0.000
  YS02163601           JUNCTION        1.42          1.080        0.000
  YS02164001           JUNCTION        1.34          1.100        0.000
  
  
  *********************
  Node Flooding Summary
  *********************
  
  Flooding refers to all water that overflows a node, whether it ponds or not.
  --------------------------------------------------------------------------
                                                             Total   Maximum
                                 Maximum   Time of Max       Flood    Ponded
                        Hours       Rate    Occurrence      Volume     Depth
  Node                 Flooded       LPS   days hr:min    10^6 ltr    Meters
  --------------------------------------------------------------------------
  WS02006238              0.01      0.68      0  02:02       0.000     0.000
  WS02006239              0.01      0.77      0  02:02       0.000     0.000
  WS02006240              0.01      1.52      0  02:02       0.000     0.000
  WS02006242              0.01      0.89      0  02:02       0.000     0.000
  WS02006243              0.01      0.83      0  02:02       0.000     0.000
  WS02006245              0.01      0.82      0  02:02       0.000     0.000
  WS02006247              0.01      0.74      0  02:02       0.000     0.000
  WS02006248              0.01     54.43      0  01:47       0.000     0.000
  WS02006249              0.92    110.05      0  01:47       0.222     0.000
  WS02006252              0.01    245.63      0  00:00       0.000     0.000
  WS02006256              1.37    293.19      0  00:00       0.460     0.000
  YS02001580              0.01     44.11      0  01:46       0.000     0.000
  YS02001586              0.75    709.00      0  02:04       0.820     0.000
  YS02001590              0.01     12.22      0  02:02       0.000     0.000
  YS02001600              0.01      6.66      0  02:02       0.000     0.000
  YS02001601              1.04   1683.12      0  02:03       2.370     0.000
  YS02001602              0.90     68.12      0  02:02       0.184     0.000
  YS02001605              0.01      4.96      0  02:02       0.000     0.000
  YS02001607              0.01     63.73      0  02:02       0.000     0.000
  YS02001610              0.79    953.84      0  02:05       1.322     0.000
  YS02001616              0.04      7.56      0  02:02       0.000     0.000
  YS02001619              0.12    153.75      0  02:03       0.040     0.000
  YS02001622              0.01      1.12      0  02:02       0.000     0.000
  YS02001625              0.77   1504.85      0  02:06       2.158     0.000
  YS02001629              0.24    236.95      0  02:02       0.095     0.000
  YS02001633              0.01      2.35      0  02:01       0.000     0.000
  YS02001644              0.35   1891.49      0  02:02       1.128     0.000
  YS02001649              0.01     21.81      0  02:02       0.000     0.000
  YS02001759              0.01      0.99      0  02:01       0.000     0.000
  YS02001762              0.01     18.07      0  02:02       0.000     0.000
  YS02001765              0.01     10.57      0  02:02       0.000     0.000
  YS02001767              0.01      3.96      0  02:02       0.000     0.000
  YS02001770              0.08    189.28      0  02:01       0.031     0.000
  YS02001774              0.01     40.58      0  02:02       0.000     0.000
  YS02001779              0.30    850.60      0  02:04       0.509     0.000
  YS02001890              0.28    576.52      0  02:01       0.248     0.000
  YS02001898              0.01      1.00      0  02:02       0.000     0.000
  YS02001907              0.54   2729.76      0  02:02       2.450     0.000
  YS02001915              0.01      1.19      0  02:01       0.000     0.000
  YS02001918              0.01     93.70      0  01:52       0.001     0.000
  YS02001920              0.01      1.31      0  02:02       0.000     0.000
  YS02001923              0.01     88.38      0  01:52       0.000     0.000
  YS02001926              0.01     39.34      0  01:52       0.000     0.000
  YS02001929              0.01    213.12      0  01:52       0.000     0.000
  YS02006558              0.01      1.31      0  02:02       0.000     0.000
  YS02163301              0.01      1.02      0  02:02       0.000     0.000
  YS02163601              0.01      0.08      0  02:02       0.000     0.000
  YS02164001              0.01      0.43      0  02:02       0.000     0.000
  
  
  **********************
  Storage Volume Summary
  **********************
  
  ------------------------------------------------------------------------------------------------
                         Average    Avg   Evap  Exfil     Maximum    Max    Time of Max    Maximum
                          Volume   Pcnt   Pcnt   Pcnt      Volume   Pcnt     Occurrence    Outflow
  Storage Unit           1000 m³   Full   Loss   Loss     1000 m³   Full    days hr:min        LPS
  ------------------------------------------------------------------------------------------------
  CC-storage               2.409   37.6    0.0    0.0       5.116   79.8       0  02:39    1783.53
  JK-storage               0.083   28.7    0.0    0.0       0.213   73.0       0  01:56    2300.00
  
  
  ***********************
  Outfall Loading Summary
  ***********************
  
  -----------------------------------------------------------
                         Flow       Avg       Max       Total
                         Freq      Flow      Flow      Volume
  Outfall Node           Pcnt       LPS       LPS    10^6 ltr
  -----------------------------------------------------------
  CC-1                  35.13    683.00    683.00       5.299
  CC-2                  40.41    683.00    683.00       5.064
  JK-1                  13.73   1000.00   1000.00       2.691
  JK-2                   6.40   1000.00   1000.00       1.210
  WSC                   99.95    248.46    554.78       5.384
  -----------------------------------------------------------
  System                39.12   3614.46   3916.97      19.648
  
  
  ********************
  Link Flow Summary
  ********************
  
  -----------------------------------------------------------------------------
                                 Maximum  Time of Max   Maximum    Max/    Max/
                                  |Flow|   Occurrence   |Veloc|    Full    Full
  Link                 Type          LPS  days hr:min     m/sec    Flow   Depth
  -----------------------------------------------------------------------------
  1                    CONDUIT    554.78     0  03:02      2.83    0.19    0.30
  WS02003060WS02003069 CONDUIT    553.06     0  02:59      1.64    0.22    0.34
  WS02003066WSF200     CONDUIT    536.50     0  03:00      2.85    0.09    0.22
  WS02003067WS02003066 CONDUIT    536.46     0  03:00      1.21    0.17    0.42
  WS02003069WS02003072 CONDUIT    553.11     0  03:00      1.37    0.27    0.39
  WS02003072WS02003073 CONDUIT    552.99     0  03:01      1.43    1.19    0.37
  WS02004401WS02004402 CONDUIT    538.77     0  02:52      1.23    0.65    0.86
  WS02004402WS02004403 CONDUIT    537.94     0  02:54      1.24    0.77    0.88
  WS02004403WS02004404 CONDUIT    537.95     0  02:53      1.17    0.39    0.93
  WS02004404WS02004405 CONDUIT    538.26     0  02:54      1.43    5.27    0.96
  WS02004405WS02004406 CONDUIT    538.43     0  02:54      1.39    1.06    0.96
  WS02004406WS02004407 CONDUIT    537.72     0  02:54      1.04    0.24    0.63
  WS02004407WS02004409 CONDUIT    537.33     0  02:54      1.47    0.19    0.48
  WS02004409WS02004410 CONDUIT    536.98     0  02:55      0.96    0.69    0.67
  WS02004410WS02004411 CONDUIT    536.70     0  02:55      0.94    0.73    0.69
  WS02004411WS02004412 CONDUIT    536.62     0  02:58      0.92    0.76    0.69
  WS02004412WS02004413 CONDUIT    536.69     0  02:59      0.88    0.36    0.78
  WS02004413WS02003067 CONDUIT    536.42     0  03:00      1.11    0.23    0.59
  WS02006109WS02006110 CONDUIT    561.03     0  03:11      1.12    1.08    1.00
  WS02006110WS02006113 CONDUIT    566.07     0  03:11      1.37    0.52    0.78
  WS02006111WS02006112 CONDUIT    542.67     0  02:59      1.96    0.26    0.67
  WS02006112WS02006115 CONDUIT    548.79     0  02:00      0.77    0.32    0.87
  WS02006113WS02006111 CONDUIT    560.99     0  03:13      2.47    0.67    0.46
  WS02006115WS02006116 CONDUIT    540.24     0  02:52      1.19    0.69    0.76
  WS02006116WS02004401 CONDUIT    539.14     0  02:52      1.22    0.74    0.84
  WS02006228WS02006109 CONDUIT    560.41     0  03:11      1.11    2.45    1.00
  WS02006229WS02006228 CONDUIT    560.27     0  03:11      1.14    1.86    1.00
  WS02006230WS02006229 CONDUIT    559.82     0  03:11      1.45   12.46    1.00
  WS02006231WS02006230 CONDUIT    579.47     0  02:15      1.56    8.79    1.00
  WS02006232WS02006231 CONDUIT    580.29     0  02:02      1.51    1.22    1.00
  WS02006234WS02006232 CONDUIT    581.03     0  02:02      1.51    1.18    1.00
  WS02006235WS02006234 CONDUIT    577.35     0  02:02      1.50    6.09    1.00
  WS02006238WS02006235 CONDUIT    432.49     0  03:46      1.45    0.97    1.00
  WS02006239WS02006238 CONDUIT    431.36     0  03:46      1.12    1.38    1.00
  WS02006240WS02006239 CONDUIT    429.64     0  03:26      1.24    1.35    1.00
  WS02006242WS02006240 CONDUIT    427.25     0  03:46      1.13    1.70    1.00
  WS02006243WS02006242 CONDUIT    427.02     0  03:26      1.40    0.91    1.00
  WS02006245WS02006243 CONDUIT    425.81     0  03:26      1.45    1.26    1.00
  WS02006247WS02006245 CONDUIT    424.31     0  03:46      1.43    3.36    1.00
  WS02006248WS02006247 CONDUIT    423.97     0  03:46      1.44    0.92    1.00
  WS02006249WS02006248 CONDUIT    424.02     0  03:26      1.36    2.32    1.00
  WS02006251WS02006249 CONDUIT    459.02     0  00:00      1.99    1.32    1.00
  WS02006252WS02006251 CONDUIT    406.90     0  01:47     25.30    1.49    1.00
  WS02006256WS02006235 CONDUIT    288.91     0  00:00      4.23    3.06    1.00
  WSF200WS02003060     CONDUIT    536.83     0  02:58      2.06    0.12    0.28
  YS02001580YS02001583 CONDUIT     74.56     0  01:46      0.54    0.29    1.00
  YS02001583YS02001586 CONDUIT    123.59     0  01:46      0.53    0.19    1.00
  YS02001586YS02001590 CONDUIT    342.83     0  02:02      1.24    0.60    1.00
  YS02001590YS02001593 CONDUIT    334.39     0  02:02      1.18    2.10    1.00
  YS02001593YS02001596 CONDUIT    318.54     0  02:02      1.71    0.50    1.00
  YS02001596YS02001600 CONDUIT    318.65     0  02:02      1.26    0.62    1.00
  YS02001600YS02001601 CONDUIT    318.60     0  02:02      1.13    0.55    1.00
  YS02001601YS02001602 CONDUIT    499.26     0  01:45      1.77    1.80    1.00
  YS02001602YS02001605 CONDUIT    499.24     0  01:45      1.77   10.56    1.00
  YS02001605YS02001607 CONDUIT    498.26     0  01:45      1.76    2.73    1.00
  YS02001607YS02001610 CONDUIT    503.92     0  01:45      0.64    0.48    1.00
  YS02001610YS02001613 CONDUIT    617.99     0  02:06      0.79    0.71    1.00
  YS02001613YS02001616 CONDUIT    618.09     0  02:06      0.79    0.53    1.00
  YS02001616YS02001619 CONDUIT    618.16     0  02:06      0.79    1.07    1.00
  YS02001619YS02001622 CONDUIT   1053.94     0  02:05      1.34    1.55    1.00
  YS02001622YS02001625 CONDUIT   1053.61     0  02:06      1.34    0.56    1.00
  YS02001625YS02001629 CONDUIT    920.41     0  01:50      1.17    0.44    1.00
  YS02001629YS02163301 CONDUIT    921.64     0  01:50      1.17    1.13    1.00
  YS02001633YS02163601 CONDUIT   1342.12     0  01:50      1.71    1.41    1.00
  YS02001641YS02001644 CONDUIT   1339.25     0  01:50      1.71    4.33    1.00
  YS02001644YS02001647 CONDUIT   1715.42     0  01:50      2.20    1.01    1.00
  YS02001647YS02001649 CONDUIT   1707.41     0  01:51      2.30    0.90    1.00
  YS02001649YS02001757 CONDUIT   1932.24     0  01:51      2.48    1.17    1.00
  YS02001652YS02001649 CONDUIT   1166.75     0  02:01      1.49    0.58    1.00
  YS02001655YS02001652 CONDUIT   1194.27     0  02:02      1.52    0.58    1.00
  YS02001658YS02001655 CONDUIT   1189.30     0  02:02      1.83    0.50    1.00
  YS02001661YS02001658 CONDUIT   1196.15     0  02:02      2.23    0.47    1.00
  YS02001664YS02001661 CONDUIT   1204.18     0  02:02      2.19    0.38    0.88
  YS02001745YS02001748 CONDUIT    801.98     0  02:02      2.09    0.31    0.96
  YS02001748YS02001751 CONDUIT    765.20     0  02:02      1.63    0.39    1.00
  YS02001751YS02001754 CONDUIT    734.83     0  02:02      1.41    0.35    1.00
  YS02001754YS02001757 CONDUIT    733.19     0  02:01      0.93    0.30    1.00
  YS02001757CaochengTiaoxuchi CONDUIT   3295.08     0  02:00      4.20    1.43    1.00
  YS02001759YS02001757 CONDUIT   1409.59     0  02:02      1.79    1.00    1.00
  YS02001762YS02001759 CONDUIT    736.31     0  01:56      0.94    0.85    1.00
  YS02001765YS02001762 CONDUIT    734.82     0  01:56      0.94    0.69    1.00
  YS02001767YS02001765 CONDUIT    734.77     0  01:56      0.94    0.92    1.00
  YS02001770YS02001767 CONDUIT    734.85     0  01:56      0.94    2.91    1.00
  YS02001774YS02001770 CONDUIT    885.02     0  02:02      1.13    0.57    1.00
  YS02001779YS02001774 CONDUIT    850.84     0  02:03      1.08    0.43    1.00
  YS02001783YS02001784 CONDUIT   1172.45     0  01:59      2.33    1.62    1.00
  YS02001784YS02001785 CONDUIT   1175.03     0  01:59      2.34    2.73    1.00
  YS02001786YS02001788 CONDUIT   1176.60     0  01:59      2.50    2.27    0.89
  YS02001788YS02001790 CONDUIT   1180.40     0  02:00      2.72    0.87    0.85
  YS02001790YS02001791 CONDUIT   1297.67     0  02:00      3.43    1.41    0.71
  YS02001791YS02001793 CONDUIT   1265.31     0  02:00      6.76    0.54    0.45
  YS02001793JiankangQianchi CONDUIT   1228.90     0  01:53      2.47    0.10    0.65
  YS02001882YS02001884 CONDUIT     32.54     0  01:49      0.17    0.04    1.00
  YS02001884YS02001887 CONDUIT     42.50     0  01:48      0.13    0.06    1.00
  YS02001887YS02001890 CONDUIT   1090.98     0  02:01      1.39    1.87    1.00
  YS02001890YS02001895 CONDUIT    564.22     0  02:02      0.72    0.26    1.00
  YS02001895YS02001898 CONDUIT    523.95     0  02:02      0.67    0.91    1.00
  YS02001898YS02001901 CONDUIT    517.58     0  02:01      0.66    0.33    1.00
  YS02001901YS02001904 CONDUIT    518.05     0  02:02      0.66    0.80    1.00
  YS02001904YS02001907 CONDUIT    520.76     0  02:02      0.66    0.18    1.00
  YS02001907YS02006553 CONDUIT    794.35     0  02:25      0.88    0.93    1.00
  YS02001910YS02001907 CONDUIT   1919.70     0  02:02      2.44    1.08    1.00
  YS02001915YS02001910 CONDUIT   1917.98     0  02:02      2.44    0.95    1.00
  YS02001918YS02001915 CONDUIT    640.22     0  02:02      0.82    0.35    1.00
  YS02001920YS02001918 CONDUIT    640.45     0  02:02      0.82    0.62    1.00
  YS02001923YS02001920 CONDUIT    639.86     0  02:02      0.81    0.29    1.00
  YS02001926YS02001923 CONDUIT    643.57     0  02:02      0.94    0.92    1.00
  YS02001929YS02001926 CONDUIT    631.76     0  02:03      1.08    0.30    1.00
  YS02006553YS02006556 CONDUIT    794.27     0  02:25      1.01    0.68    1.00
  YS02006556YS02006558 CONDUIT    794.87     0  02:25      1.01    0.63    1.00
  YS02006558YS02006561 CONDUIT   1171.99     0  01:59      4.15    2.59    1.00
  YS02006561YS02001783 CONDUIT   1173.80     0  01:59      2.34    0.61    1.00
  YS02163301YS02001633 CONDUIT    922.13     0  01:50      1.17    0.87    1.00
  YS02163601YS02164001 CONDUIT   1341.25     0  01:50      1.71    1.19    1.00
  YS02164001YS02001641 CONDUIT   1340.82     0  01:50      1.71    1.83    1.00
  CC-R1                PUMP       683.00     0  00:00              1.00
  CC-R2                PUMP       683.00     0  00:00              1.00
  CC-S1                PUMP       200.00     0  00:00              1.00
  CC-S2                PUMP       200.00     0  00:00              1.00
  JK-R1                PUMP      1000.00     0  00:00              1.00
  JK-R2                PUMP      1000.00     0  00:00              1.00
  JK-S                 PUMP       300.00     0  00:00              1.00
  
  
  ***************************
  Flow Classification Summary
  ***************************
  
  -------------------------------------------------------------------------------------
                      Adjusted    ---------- Fraction of Time in Flow Class ---------- 
                       /Actual         Up    Down  Sub   Sup   Up    Down  Norm  Inlet 
  Conduit               Length    Dry  Dry   Dry   Crit  Crit  Crit  Crit  Ltd   Ctrl  
  -------------------------------------------------------------------------------------
  1                       1.00   0.00  0.00  0.00  0.00  1.00  0.00  0.00  0.36  0.00
  WS02003060WS02003069    1.00   0.00  0.00  0.00  0.97  0.03  0.00  0.00  0.68  0.00
  WS02003066WSF200        1.00   0.06  0.00  0.00  0.00  0.94  0.00  0.00  0.81  0.00
  WS02003067WS02003066    1.00   0.05  0.01  0.00  0.94  0.00  0.00  0.00  0.00  0.00
  WS02003069WS02003072    1.00   0.00  0.00  0.00  0.99  0.01  0.00  0.00  0.68  0.00
  WS02003072WS02003073    1.00   0.00  0.00  0.00  0.00  0.00  0.00  1.00  0.00  0.00
  WS02004401WS02004402    1.00   0.02  0.00  0.00  0.98  0.00  0.00  0.00  0.00  0.00
  WS02004402WS02004403    1.00   0.02  0.00  0.00  0.98  0.00  0.00  0.00  0.00  0.00
  WS02004403WS02004404    1.00   0.00  0.03  0.00  0.97  0.00  0.00  0.00  0.00  0.00
  WS02004404WS02004405    1.00   0.00  0.00  0.00  1.00  0.00  0.00  0.00  0.01  0.00
  WS02004405WS02004406    1.00   0.00  0.00  0.00  1.00  0.00  0.00  0.00  0.00  0.00
  WS02004406WS02004407    1.00   0.00  0.03  0.00  0.96  0.00  0.00  0.00  0.00  0.00
  WS02004407WS02004409    1.00   0.04  0.00  0.00  0.95  0.01  0.00  0.00  0.96  0.00
  WS02004409WS02004410    1.00   0.04  0.00  0.00  0.96  0.00  0.00  0.00  0.00  0.00
  WS02004410WS02004411    1.00   0.04  0.00  0.00  0.96  0.00  0.00  0.00  0.00  0.00
  WS02004411WS02004412    1.00   0.04  0.00  0.00  0.96  0.00  0.00  0.00  0.00  0.00
  WS02004412WS02004413    1.00   0.04  0.00  0.00  0.96  0.00  0.00  0.00  0.00  0.00
  WS02004413WS02003067    1.00   0.04  0.01  0.00  0.00  0.00  0.95  0.00  0.00  0.00
  WS02006109WS02006110    1.00   0.00  0.01  0.00  0.98  0.00  0.01  0.00  0.00  0.00
  WS02006110WS02006113    1.00   0.01  0.01  0.00  0.98  0.00  0.00  0.00  0.00  0.00
  WS02006111WS02006112    1.00   0.02  0.00  0.00  0.98  0.00  0.00  0.00  0.98  0.00
  WS02006112WS02006115    1.00   0.02  0.00  0.00  0.97  0.00  0.00  0.00  0.00  0.00
  WS02006113WS02006111    1.00   0.02  0.00  0.00  0.00  0.98  0.00  0.00  0.12  0.00
  WS02006115WS02006116    1.00   0.02  0.00  0.00  0.97  0.00  0.00  0.01  0.00  0.00
  WS02006116WS02004401    1.00   0.02  0.00  0.00  0.98  0.00  0.00  0.00  0.00  0.00
  WS02006228WS02006109    1.00   0.00  0.00  0.00  1.00  0.00  0.00  0.00  0.00  0.00
  WS02006229WS02006228    1.00   0.00  0.00  0.00  0.99  0.00  0.00  0.01  0.00  0.00
  WS02006230WS02006229    1.00   0.00  0.00  0.00  0.99  0.00  0.00  0.01  0.03  0.00
  WS02006231WS02006230    1.00   0.00  0.00  0.00  0.31  0.00  0.69  0.00  0.00  0.00
  WS02006232WS02006231    1.00   0.00  0.00  0.00  0.99  0.00  0.01  0.00  0.00  0.00
  WS02006234WS02006232    1.00   0.00  0.00  0.00  1.00  0.00  0.00  0.00  0.03  0.00
  WS02006235WS02006234    1.00   0.00  0.00  0.00  0.92  0.00  0.08  0.00  0.00  0.00
  WS02006238WS02006235    1.00   0.00  0.00  0.00  1.00  0.00  0.00  0.00  0.00  0.00
  WS02006239WS02006238    1.00   0.00  0.00  0.00  1.00  0.00  0.00  0.00  0.16  0.00
  WS02006240WS02006239    1.00   0.00  0.00  0.00  0.66  0.00  0.00  0.34  0.03  0.00
  WS02006242WS02006240    1.00   0.00  0.00  0.00  0.98  0.00  0.01  0.00  0.00  0.00
  WS02006243WS02006242    1.00   0.00  0.00  0.00  0.99  0.00  0.00  0.01  0.58  0.00
  WS02006245WS02006243    1.00   0.00  0.00  0.00  0.83  0.00  0.00  0.17  0.00  0.00
  WS02006247WS02006245    1.00   0.00  0.00  0.00  0.95  0.00  0.00  0.05  0.00  0.00
  WS02006248WS02006247    1.00   0.00  0.00  0.00  0.98  0.00  0.00  0.02  0.54  0.00
  WS02006249WS02006248    1.00   0.00  0.00  0.00  0.46  0.00  0.54  0.00  0.00  0.00
  WS02006251WS02006249    1.00   0.00  0.00  0.00  0.99  0.01  0.00  0.00  0.55  0.00
  WS02006252WS02006251    1.00   0.00  0.43  0.00  0.12  0.00  0.46  0.00  0.00  0.00
  WS02006256WS02006235    1.00   0.00  0.00  0.00  0.98  0.02  0.00  0.00  0.00  0.00
  WSF200WS02003060        1.00   0.00  0.06  0.00  0.40  0.54  0.00  0.00  0.60  0.00
  YS02001580YS02001583    1.00   0.22  0.54  0.00  0.24  0.00  0.00  0.00  0.63  0.00
  YS02001583YS02001586    1.00   0.40  0.30  0.00  0.30  0.00  0.00  0.00  0.63  0.00
  YS02001586YS02001590    1.00   0.13  0.00  0.00  0.46  0.04  0.00  0.38  0.34  0.00
  YS02001590YS02001593    1.00   0.13  0.01  0.00  0.17  0.00  0.70  0.00  0.00  0.00
  YS02001593YS02001596    1.00   0.13  0.00  0.00  0.19  0.01  0.00  0.67  0.02  0.00
  YS02001596YS02001600    1.00   0.13  0.00  0.00  0.24  0.01  0.00  0.62  0.04  0.00
  YS02001600YS02001601    1.00   0.13  0.01  0.00  0.86  0.00  0.00  0.00  0.57  0.00
  YS02001601YS02001602    1.00   0.13  0.01  0.00  0.87  0.00  0.00  0.00  0.00  0.00
  YS02001602YS02001605    1.00   0.13  0.00  0.00  0.87  0.00  0.00  0.00  0.00  0.00
  YS02001605YS02001607    1.00   0.13  0.00  0.00  0.87  0.00  0.00  0.00  0.00  0.00
  YS02001607YS02001610    1.00   0.13  0.00  0.00  0.86  0.00  0.00  0.00  0.01  0.00
  YS02001610YS02001613    1.00   0.13  0.00  0.00  0.87  0.00  0.00  0.00  0.00  0.00
  YS02001613YS02001616    1.00   0.13  0.00  0.00  0.87  0.00  0.00  0.00  0.00  0.00
  YS02001616YS02001619    1.00   0.13  0.00  0.00  0.87  0.00  0.00  0.00  0.00  0.00
  YS02001619YS02001622    1.00   0.13  0.00  0.00  0.87  0.00  0.00  0.00  0.27  0.00
  YS02001622YS02001625    1.00   0.13  0.00  0.00  0.87  0.00  0.00  0.00  0.03  0.00
  YS02001625YS02001629    1.00   0.13  0.04  0.00  0.21  0.00  0.62  0.00  0.00  0.00
  YS02001629YS02163301    1.00   0.14  0.01  0.00  0.85  0.00  0.00  0.00  0.00  0.00
  YS02001633YS02163601    1.00   0.00  0.01  0.00  0.99  0.00  0.00  0.00  0.14  0.00
  YS02001641YS02001644    1.00   0.00  0.01  0.00  0.99  0.00  0.00  0.00  0.00  0.00
  YS02001644YS02001647    1.00   0.00  0.16  0.00  0.84  0.00  0.00  0.00  0.00  0.00
  YS02001647YS02001649    1.00   0.00  0.16  0.00  0.60  0.24  0.00  0.00  0.56  0.00
  YS02001649YS02001757    1.00   0.00  0.00  0.00  0.76  0.24  0.00  0.00  0.37  0.00
  YS02001652YS02001649    1.00   0.00  0.00  0.00  0.97  0.03  0.00  0.00  0.70  0.00
  YS02001655YS02001652    1.00   0.00  0.00  0.00  0.25  0.01  0.00  0.75  0.05  0.00
  YS02001658YS02001655    1.00   0.00  0.14  0.00  0.71  0.15  0.00  0.00  0.62  0.00
  YS02001661YS02001658    1.00   0.14  0.00  0.00  0.55  0.31  0.00  0.00  0.64  0.00
  YS02001664YS02001661    1.00   0.13  0.00  0.00  0.78  0.09  0.00  0.00  0.84  0.00
  YS02001745YS02001748    1.00   0.00  0.00  0.00  0.16  0.00  0.00  0.84  0.05  0.00
  YS02001748YS02001751    1.00   0.00  0.00  0.00  0.87  0.13  0.00  0.00  0.73  0.00
  YS02001751YS02001754    1.00   0.00  0.00  0.00  0.23  0.01  0.00  0.77  0.04  0.00
  YS02001754YS02001757    1.00   0.00  0.00  0.00  1.00  0.00  0.00  0.00  0.76  0.00
  YS02001757CaochengTiaoxuchi    1.00   0.00  0.00  0.00  0.96  0.04  0.00  0.00  0.70  0.00
  YS02001759YS02001757    1.00   0.00  0.00  0.00  0.98  0.02  0.00  0.00  0.58  0.00
  YS02001762YS02001759    1.00   0.00  0.00  0.00  1.00  0.00  0.00  0.00  0.02  0.00
  YS02001765YS02001762    1.00   0.00  0.00  0.00  1.00  0.00  0.00  0.00  0.66  0.00
  YS02001767YS02001765    1.00   0.00  0.00  0.00  1.00  0.00  0.00  0.00  0.00  0.00
  YS02001770YS02001767    1.00   0.00  0.00  0.00  1.00  0.00  0.00  0.00  0.00  0.00
  YS02001774YS02001770    1.00   0.00  0.13  0.00  0.71  0.00  0.16  0.00  0.02  0.00
  YS02001779YS02001774    1.00   0.00  0.00  0.00  1.00  0.00  0.00  0.00  0.72  0.00
  YS02001783YS02001784    1.00   0.00  0.16  0.00  0.84  0.00  0.00  0.00  0.54  0.00
  YS02001784YS02001785    1.00   0.00  0.00  0.00  1.00  0.00  0.00  0.00  0.15  0.00
  YS02001786YS02001788    1.00   0.00  0.00  0.00  0.79  0.21  0.00  0.00  0.00  0.00
  YS02001788YS02001790    1.00   0.00  0.00  0.00  0.21  0.79  0.00  0.00  0.78  0.00
  YS02001790YS02001791    1.00   0.00  0.00  0.00  0.01  0.99  0.00  0.00  0.16  0.00
  YS02001791YS02001793    1.00   0.00  0.00  0.00  0.00  1.00  0.00  0.00  0.01  0.00
  YS02001793JiankangQianchi    1.00   0.00  0.00  0.00  0.98  0.02  0.00  0.00  0.93  0.00
  YS02001882YS02001884    1.00   0.14  0.01  0.00  0.85  0.00  0.00  0.00  0.00  0.00
  YS02001884YS02001887    1.00   0.06  0.05  0.00  0.89  0.00  0.00  0.00  0.00  0.00
  YS02001887YS02001890    1.00   0.00  0.00  0.00  0.97  0.00  0.03  0.00  0.00  0.00
  YS02001890YS02001895    1.00   0.00  0.15  0.00  0.85  0.00  0.00  0.00  0.00  0.00
  YS02001895YS02001898    1.00   0.15  0.00  0.00  0.83  0.00  0.01  0.00  0.00  0.00
  YS02001898YS02001901    1.00   0.15  0.00  0.00  0.85  0.00  0.00  0.00  0.01  0.00
  YS02001901YS02001904    1.00   0.15  0.00  0.00  0.85  0.00  0.00  0.00  0.00  0.00
  YS02001904YS02001907    1.00   0.00  0.15  0.00  0.85  0.00  0.00  0.00  0.00  0.00
  YS02001907YS02006553    1.00   0.00  0.02  0.00  0.98  0.00  0.00  0.00  0.00  0.00
  YS02001910YS02001907    1.00   0.00  0.00  0.00  0.97  0.00  0.00  0.03  0.11  0.00
  YS02001915YS02001910    1.00   0.00  0.00  0.00  0.97  0.03  0.00  0.00  0.13  0.00
  YS02001918YS02001915    1.00   0.00  0.01  0.00  0.98  0.02  0.00  0.00  0.70  0.00
  YS02001920YS02001918    1.00   0.00  0.01  0.00  0.99  0.00  0.00  0.00  0.00  0.00
  YS02001923YS02001920    1.00   0.00  0.00  0.00  1.00  0.00  0.00  0.00  0.89  0.00
  YS02001926YS02001923    1.00   0.00  0.07  0.00  0.09  0.00  0.84  0.00  0.00  0.00
  YS02001929YS02001926    1.00   0.00  0.13  0.00  0.87  0.00  0.00  0.00  0.79  0.00
  YS02006553YS02006556    1.00   0.01  0.00  0.00  0.99  0.00  0.00  0.00  0.03  0.00
  YS02006556YS02006558    1.00   0.00  0.00  0.00  1.00  0.00  0.00  0.00  0.00  0.00
  YS02006558YS02006561    1.00   0.16  0.00  0.00  0.08  0.75  0.00  0.00  0.16  0.00
  YS02006561YS02001783    1.00   0.16  0.00  0.00  0.13  0.71  0.00  0.00  0.65  0.00
  YS02163301YS02001633    1.00   0.00  0.14  0.00  0.86  0.00  0.00  0.00  0.00  0.00
  YS02163601YS02164001    1.00   0.00  0.08  0.00  0.92  0.00  0.00  0.00  0.00  0.00
  YS02164001YS02001641    1.00   0.01  0.07  0.00  0.92  0.00  0.00  0.00  0.05  0.00
  
  
  *************************
  Conduit Surcharge Summary
  *************************
  
  ----------------------------------------------------------------------------
                                                           Hours        Hours 
                         --------- Hours Full --------   Above Full   Capacity
  Conduit                Both Ends  Upstream  Dnstream   Normal Flow   Limited
  ----------------------------------------------------------------------------
  WS02003072WS02003073        0.01      0.01      0.01      1.23         0.01
  WS02004404WS02004405        0.01      0.01      0.01      2.96         0.01
  WS02004405WS02004406        0.01      0.01      0.01      0.71         0.01
  WS02006109WS02006110        0.75      0.75      2.40      0.86         0.01
  WS02006110WS02006113        0.01      0.01      2.37      0.01         0.01
  WS02006111WS02006112        0.01      0.01      2.49      0.01         0.01
  WS02006112WS02006115        0.01      0.01      0.79      0.01         0.01
  WS02006228WS02006109        2.34      2.40      2.34      2.72         2.34
  WS02006229WS02006228        2.33      2.36      2.33      2.55         2.32
  WS02006230WS02006229        2.44      2.48      2.44      3.55         2.44
  WS02006231WS02006230        0.77      0.77      0.93      3.12         0.01
  WS02006232WS02006231        0.88      0.88      2.41      0.95         0.01
  WS02006234WS02006232        2.27      2.27      2.41      0.93         0.93
  WS02006235WS02006234        1.28      1.29      2.32      3.05         0.02
  WS02006238WS02006235        2.34      2.34      2.40      0.01         0.01
  WS02006239WS02006238        2.34      2.35      2.37      2.32         2.05
  WS02006240WS02006239        2.22      2.23      2.26      2.32         1.94
  WS02006242WS02006240        2.23      2.23      2.33      2.40         0.01
  WS02006243WS02006242        2.23      2.23      2.25      0.01         0.05
  WS02006245WS02006243        2.23      2.23      2.23      1.51         1.53
  WS02006247WS02006245        2.23      2.23      2.23      2.88         2.21
  WS02006248WS02006247        2.22      2.22      2.23      0.01         0.05
  WS02006249WS02006248        2.22      2.22      2.22      2.84         0.01
  WS02006251WS02006249        2.22      2.22      2.22      2.33         2.14
  WS02006252WS02006251        2.40      2.40      2.43      2.40         0.01
  WS02006256WS02006235        3.05      3.09      6.99      1.40         0.01
  YS02001580YS02001583        0.94      0.94      1.02      0.01         0.01
  YS02001583YS02001586        0.95      0.95      1.13      0.01         0.01
  YS02001586YS02001590        1.14      1.14      1.23      0.01         0.01
  YS02001590YS02001593        1.23      1.23      1.26      1.27         0.01
  YS02001593YS02001596        1.25      1.25      1.37      0.01         0.01
  YS02001596YS02001600        1.42      1.42      1.51      0.01         0.01
  YS02001600YS02001601        1.55      1.55      1.78      0.01         0.01
  YS02001601YS02001602        1.69      1.69      1.81      1.50         0.01
  YS02001602YS02001605        1.65      1.65      1.69      2.51         0.01
  YS02001605YS02001607        1.61      1.65      1.62      1.72         1.61
  YS02001607YS02001610        1.24      1.24      1.27      0.01         0.01
  YS02001610YS02001613        1.24      1.24      1.27      0.01         0.01
  YS02001613YS02001616        1.18      1.18      1.24      0.01         0.01
  YS02001616YS02001619        1.17      1.17      1.18      0.11         0.10
  YS02001619YS02001622        1.17      1.17      1.17      1.18         1.07
  YS02001622YS02001625        1.17      1.17      1.36      0.01         0.01
  YS02001625YS02001629        1.10      1.10      1.36      0.01         0.01
  YS02001629YS02163301        1.36      1.36      1.37      0.09         0.17
  YS02001633YS02163601        1.39      1.39      1.42      0.32         0.34
  YS02001641YS02001644        1.31      1.34      1.31      1.84         1.29
  YS02001644YS02001647        1.07      1.07      1.31      0.01         0.01
  YS02001647YS02001649        1.07      1.07      1.22      0.01         0.01
  YS02001649YS02001757        1.21      1.22      1.27      0.13         0.07
  YS02001652YS02001649        1.02      1.02      1.22      0.01         0.01
  YS02001655YS02001652        0.77      0.77      0.99      0.01         0.01
  YS02001658YS02001655        0.42      0.42      0.77      0.01         0.01
  YS02001661YS02001658        0.14      0.14      0.42      0.01         0.01
  YS02001664YS02001661        0.01      0.01      0.19      0.01         0.01
  YS02001745YS02001748        0.01      0.01      0.32      0.01         0.01
  YS02001748YS02001751        0.37      0.37      0.58      0.01         0.01
  YS02001751YS02001754        0.58      0.58      0.89      0.01         0.01
  YS02001754YS02001757        0.95      0.95      1.27      0.01         0.01
  YS02001757CaochengTiaoxuchi        1.24      1.27      1.96      0.55         0.47
  YS02001759YS02001757        1.19      1.19      1.27      0.01         0.04
  YS02001762YS02001759        1.17      1.17      1.19      0.01         0.02
  YS02001765YS02001762        1.12      1.12      1.17      0.01         0.01
  YS02001767YS02001765        1.08      1.08      1.12      0.01         0.03
  YS02001770YS02001767        1.08      1.08      1.08      0.79         0.70
  YS02001774YS02001770        1.04      1.04      1.15      0.01         0.01
  YS02001779YS02001774        0.87      0.87      1.15      0.01         0.01
  YS02001783YS02001784        0.76      0.79      0.76      0.99         0.76
  YS02001784YS02001785        0.63      0.76      0.63      1.35         0.63
  YS02001786YS02001788        0.01      0.63      0.01      1.14         0.01
  YS02001790YS02001791        0.01      0.01      0.01      0.74         0.01
  YS02001793JiankangQianchi        0.01      0.01      6.49      0.01         0.01
  YS02001882YS02001884        0.72      0.72      0.73      0.01         0.01
  YS02001884YS02001887        0.76      0.76      0.78      0.01         0.01
  YS02001887YS02001890        0.80      0.80      0.81      0.21         0.01
  YS02001890YS02001895        0.70      0.70      0.83      0.01         0.01
  YS02001895YS02001898        0.70      0.70      0.70      0.01         0.01
  YS02001898YS02001901        0.71      0.71      0.76      0.01         0.01
  YS02001901YS02001904        0.75      0.75      0.76      0.01         0.01
  YS02001904YS02001907        0.75      0.75      1.12      0.01         0.01
  YS02001907YS02006553        1.37      1.37      1.45      0.01         0.01
  YS02001910YS02001907        0.83      0.83      1.08      0.07         0.07
  YS02001915YS02001910        0.71      0.71      0.83      0.01         0.01
  YS02001918YS02001915        0.61      0.61      0.71      0.01         0.01
  YS02001920YS02001918        0.61      0.61      0.62      0.01         0.01
  YS02001923YS02001920        0.55      0.55      0.62      0.01         0.01
  YS02001926YS02001923        0.22      0.22      0.27      0.01         0.01
  YS02001929YS02001926        0.10      0.10      0.27      0.01         0.01
  YS02006553YS02006556        0.96      0.96      1.11      0.01         0.01
  YS02006556YS02006558        1.04      1.04      1.15      0.01         0.01
  YS02006558YS02006561        0.65      0.94      0.65      1.28         0.65
  YS02006561YS02001783        0.57      0.57      0.79      0.01         0.01
  YS02163301YS02001633        1.37      1.37      1.41      0.01         0.01
  YS02163601YS02164001        1.34      1.34      1.42      0.11         0.01
  YS02164001YS02001641        1.34      1.34      1.34      0.90         0.83
  
  
  ***************
  Pumping Summary
  ***************
  
  ---------------------------------------------------------------------------------------------------------
                                                  Min       Avg       Max     Total     Power    % Time Off
                        Percent   Number of      Flow      Flow      Flow    Volume     Usage    Pump Curve
  Pump                 Utilized   Start-Ups       LPS       LPS       LPS  10^6 ltr     Kw-hr    Low   High
  ---------------------------------------------------------------------------------------------------------
  CC-R1                   27.01          18      0.00    683.00    683.00     5.314     99.85    0.0   19.1
  CC-R2                   25.83          22      0.00    683.00    683.00     5.081     94.75    0.0   29.2
  CC-S1                   34.28          22      0.00    200.00    200.00     1.975     11.04    0.0    0.0
  CC-S2                   33.64          22      0.00    200.00    200.00     1.938     10.80    0.0    0.0
  JK-R1                    9.34          18      0.00   1000.00   1000.00     2.690     30.19    0.0    0.0
  JK-R2                    4.19          15      0.00   1000.00   1000.00     1.208     11.33    0.0    0.0
  JK-S                    17.12          33      0.00    300.00    300.00     1.479     24.53    0.0    0.0
  

  Analysis begun on:  Mon Dec 30 10:19:58 2024
  Analysis ended on:  Mon Dec 30 10:20:00 2024
  Total elapsed time: 00:00:02