
  EPA STORM WATER MANAGEMENT MODEL - VERSION 5.2 (Build 5.2.4)
  PYSWMM TOOLKIT API - VERSION v1.0 (2023-11-27)
  ------------------------------------------------------------

  WARNING 04: minimum elevation drop used for Conduit WS02004404WS02004405
  WARNING 03: negative offset ignored for Link YS02001904YS02001907
  
  ****************
  Analysis Options
  ****************
  Flow Units ............... LPS
  Process Models:
    Rainfall/Runoff ........ YES
    RDII ................... NO
    Snowmelt ............... NO
    Groundwater ............ NO
    Flow Routing ........... YES
    Ponding Allowed ........ NO
    Water Quality .......... NO
  Infiltration Method ...... HORTON
  Flow Routing Method ...... DYNWAVE
  Surcharge Method ......... EXTRAN
  Starting Date ............ 08/28/2015 08:00:00
  Ending Date .............. 08/28/2015 16:00:00
  Antecedent Dry Days ...... 8.0
  Report Time Step ......... 00:01:00
  Wet Time Step ............ 00:01:00
  Dry Time Step ............ 00:01:00
  Routing Time Step ........ 30.00 sec
  Variable Time Step ....... YES
  Maximum Trials ........... 8
  Number of Threads ........ 4
  Head Tolerance ........... 0.001500 m
  
  
  **************************        Volume         Depth
  Runoff Quantity Continuity     hectare-m            mm
  **************************     ---------       -------
  Total Precipitation ......         1.900        57.282
  Evaporation Loss .........         0.000         0.000
  Infiltration Loss ........         0.099         2.978
  Surface Runoff ...........         1.769        53.322
  Final Storage ............         0.033         0.995
  Continuity Error (%) .....        -0.022
  
  
  **************************        Volume        Volume
  Flow Routing Continuity        hectare-m      10^6 ltr
  **************************     ---------     ---------
  Dry Weather Inflow .......         0.025         0.251
  Wet Weather Inflow .......         1.769        17.691
  Groundwater Inflow .......         0.000         0.000
  RDII Inflow ..............         0.000         0.000
  External Inflow ..........         0.083         0.834
  External Outflow .........         1.499        14.994
  Flooding Loss ............         0.447         4.472
  Evaporation Loss .........         0.000         0.000
  Exfiltration Loss ........         0.000         0.000
  Initial Stored Volume ....         0.243         2.431
  Final Stored Volume ......         0.182         1.823
  Continuity Error (%) .....        -0.389
  
  
  *************************
  Highest Continuity Errors
  *************************
  Node YS02001884 (4.98%)
  Node YS02001583 (-4.45%)
  Node WS02006256 (-3.97%)
  Node WS02006249 (1.04%)
  
  
  ***************************
  Time-Step Critical Elements
  ***************************
  Link WS02006238WS02006235 (31.54%)
  Link WS02006252WS02006251 (23.11%)
  Link WS02004404WS02004405 (16.29%)
  Link WS02006235WS02006234 (7.35%)
  Link YS02001791YS02001793 (6.94%)
  
  
  ********************************
  Highest Flow Instability Indexes
  ********************************
  Link WS02006113WS02006111 (38)
  Link WS02006256WS02006235 (21)
  Link WS02006111WS02006112 (17)
  Link WS02006238WS02006235 (16)
  Link YS02006558YS02006561 (14)
  
  
  *********************************
  Most Frequent Nonconverging Nodes
  *********************************
  Node CC-1 (14.30%)
  Node CC-2 (14.30%)
  Node JK-1 (14.30%)
  Node JK-2 (14.30%)
  Node WSC (14.30%)
  
  
  *************************
  Routing Time Step Summary
  *************************
  Minimum Time Step           :     0.01 sec
  Average Time Step           :     2.76 sec
  Maximum Time Step           :     8.35 sec
  % of Time in Steady State   :     0.00
  Average Iterations per Step :     3.41
  % of Steps Not Converging   :    14.30
  Time Step Frequencies       :
     30.000 - 13.228 sec      :     0.00 %
     13.228 -  5.833 sec      :    14.31 %
      5.833 -  2.572 sec      :    31.75 %
      2.572 -  1.134 sec      :    23.42 %
      1.134 -  0.500 sec      :    30.51 %
  
  
  ***************************
  Subcatchment Runoff Summary
  ***************************
  
  ------------------------------------------------------------------------------------------------------------------------------
                            Total      Total      Total      Total     Imperv       Perv      Total       Total     Peak  Runoff
                           Precip      Runon       Evap      Infil     Runoff     Runoff     Runoff      Runoff   Runoff   Coeff
  Subcatchment                 mm         mm         mm         mm         mm         mm         mm    10^6 ltr      LPS
  ------------------------------------------------------------------------------------------------------------------------------
  sub60                     57.28       0.00       0.00       1.78      49.20       5.09      54.30        0.71   509.23   0.948
  sub61                     57.28       0.00       0.00       2.59      46.41       7.16      53.57        0.98   707.38   0.935
  sub62                     57.28       0.00       0.00       1.19      51.41       3.40      54.81        1.50   989.92   0.957
  sub63                     57.28       0.00       0.00       4.79      39.70      11.82      51.52        1.17   790.65   0.899
  sub64                     57.28       0.00       0.00       2.42      47.48       6.18      53.66        1.29   809.38   0.937
  sub65                     57.28       0.00       0.00       2.09      48.58       5.36      53.94        1.48   903.77   0.942
  sub66                     57.28       0.00       0.00       5.95      39.59      10.67      50.26        2.34  1178.22   0.877
  sub67                     57.28       0.00       0.00       1.14      51.45       3.44      54.90        1.02   769.90   0.958
  sub68                     57.28       0.00       0.00       2.14      48.07       5.88      53.95        1.48  1012.92   0.942
  sub69                     57.28       0.00       0.00       1.91      48.58       6.68      55.26        2.05  1201.55   0.965
  sub70                     57.28       0.00       0.00       6.40      37.64      13.08      50.72        1.47   660.88   0.885
  sub71                     57.28       0.00       0.00       1.22      51.37       3.36      54.74        1.43   874.94   0.956
  sub72                     57.28       0.00       0.00       1.09      51.87       2.92      54.79        0.75   421.38   0.957
  
  
  ******************
  Node Depth Summary
  ******************
  
  ---------------------------------------------------------------------------------
                                 Average  Maximum  Maximum  Time of Max    Reported
                                   Depth    Depth      HGL   Occurrence   Max Depth
  Node                 Type       Meters   Meters   Meters  days hr:min      Meters
  ---------------------------------------------------------------------------------
  WS02003060           JUNCTION     0.20     0.37     5.31     0  02:34        0.37
  WS02003066           JUNCTION     0.17     0.29     5.85     0  02:33        0.29
  WS02003067           JUNCTION     0.45     0.69     6.01     0  02:33        0.69
  WS02003069           JUNCTION     0.22     0.42     5.00     0  02:34        0.42
  WS02003072           JUNCTION     0.28     0.49     4.86     0  02:35        0.49
  WS02003073           JUNCTION     0.16     0.29     4.36     0  02:36        0.29
  WS02004401           JUNCTION     0.53     0.84     6.84     0  02:31        0.84
  WS02004402           JUNCTION     0.57     0.87     6.83     0  02:31        0.87
  WS02004403           JUNCTION     0.59     0.88     6.81     0  02:31        0.88
  WS02004404           JUNCTION     0.66     0.96     6.81     0  02:31        0.95
  WS02004405           JUNCTION     0.66     0.95     6.80     0  02:31        0.95
  WS02004406           JUNCTION     0.68     0.95     6.78     0  02:31        0.95
  WS02004407           JUNCTION     0.15     0.29     6.61     0  02:31        0.29
  WS02004409           JUNCTION     0.33     0.65     6.42     0  02:32        0.65
  WS02004410           JUNCTION     0.36     0.66     6.38     0  02:32        0.66
  WS02004411           JUNCTION     0.38     0.67     6.35     0  02:32        0.67
  WS02004412           JUNCTION     0.40     0.68     6.32     0  02:33        0.68
  WS02004413           JUNCTION     0.56     0.84     6.31     0  02:33        0.84
  WS02006109           JUNCTION     0.59     1.19     7.81     0  02:38        0.99
  WS02006110           JUNCTION     0.60     1.23     7.81     0  02:38        0.94
  WS02006111           JUNCTION     0.15     0.29     6.99     0  02:40        0.29
  WS02006112           JUNCTION     0.68     1.04     6.92     0  02:30        1.04
  WS02006113           JUNCTION     0.23     0.46     7.35     0  03:17        0.46
  WS02006115           JUNCTION     0.41     0.74     6.88     0  02:30        0.73
  WS02006116           JUNCTION     0.50     0.82     6.86     0  02:30        0.82
  WS02006228           JUNCTION     0.58     1.13     7.78     0  02:38        1.02
  WS02006229           JUNCTION     0.55     1.15     7.84     0  02:25        1.03
  WS02006230           JUNCTION     0.54     1.31     8.06     0  02:25        1.15
  WS02006231           JUNCTION     0.36     1.02     8.15     0  02:25        0.92
  WS02006232           JUNCTION     0.48     1.48     8.52     0  03:30        1.13
  WS02006234           JUNCTION     0.40     1.70     8.85     0  03:30        1.17
  WS02006235           JUNCTION     0.43     1.53     8.69     0  03:30        1.27
  WS02006238           JUNCTION     0.46     1.56     8.70     0  03:30        1.31
  WS02006239           JUNCTION     0.42     1.88     9.09     0  03:30        1.29
  WS02006240           JUNCTION     0.38     2.10     9.39     0  03:30        1.25
  WS02006242           JUNCTION     0.44     1.55     8.82     0  03:30        1.31
  WS02006243           JUNCTION     0.36     1.48     8.90     0  03:30        1.20
  WS02006245           JUNCTION     0.36     1.23     8.71     0  02:40        1.17
  WS02006247           JUNCTION     0.38     1.22     8.72     0  02:40        1.17
  WS02006248           JUNCTION     0.34     1.10     8.69     0  02:38        1.09
  WS02006249           JUNCTION     0.37     1.09     8.69     0  02:15        1.09
  WS02006251           JUNCTION     0.37     1.42     9.09     0  02:16        1.13
  WS02006252           JUNCTION     0.27     1.50     9.74     0  00:00        0.68
  WS02006256           JUNCTION     0.98     2.35     9.28     0  00:00        2.35
  WSF200               JUNCTION     0.14     0.28     5.52     0  02:33        0.28
  YS02001580           JUNCTION     0.12     1.05     9.59     0  02:05        0.77
  YS02001583           JUNCTION     0.15     1.14     9.63     0  02:05        0.82
  YS02001586           JUNCTION     0.25     1.13     9.30     0  02:05        1.13
  YS02001590           JUNCTION     0.36     1.38     9.24     0  02:05        1.37
  YS02001593           JUNCTION     0.28     1.32     9.18     0  02:31        1.32
  YS02001596           JUNCTION     0.38     1.68     9.10     0  02:31        1.68
  YS02001600           JUNCTION     0.47     1.87     9.00     0  02:05        1.87
  YS02001601           JUNCTION     0.67     2.06     8.90     0  02:04        2.06
  YS02001602           JUNCTION     0.57     1.87     8.77     0  02:05        1.87
  YS02001605           JUNCTION     0.53     1.78     8.68     0  02:31        1.78
  YS02001607           JUNCTION     0.51     1.66     8.51     0  02:08        1.66
  YS02001610           JUNCTION     0.56     1.68     8.48     0  02:08        1.68
  YS02001613           JUNCTION     0.51     1.70     8.54     0  02:08        1.70
  YS02001616           JUNCTION     0.44     1.61     8.52     0  02:08        1.61
  YS02001619           JUNCTION     0.42     1.61     8.54     0  02:08        1.61
  YS02001622           JUNCTION     0.41     1.62     8.52     0  02:08        1.62
  YS02001625           JUNCTION     0.67     1.78     8.38     0  02:08        1.78
  YS02001629           JUNCTION     0.55     1.85     8.40     0  02:08        1.85
  YS02001633           JUNCTION     0.62     2.06     8.51     0  02:08        2.06
  YS02001641           JUNCTION     0.60     1.98     8.42     0  02:10        1.98
  YS02001644           JUNCTION     0.59     1.92     8.35     0  02:09        1.92
  YS02001647           JUNCTION     0.36     1.83     8.44     0  02:10        1.72
  YS02001649           JUNCTION     0.41     2.05     8.44     0  02:11        1.91
  YS02001652           JUNCTION     0.29     2.16     8.76     0  02:10        1.74
  YS02001655           JUNCTION     0.22     2.20     9.05     0  02:10        1.52
  YS02001658           JUNCTION     0.16     2.30     9.44     0  02:10        1.28
  YS02001661           JUNCTION     0.18     1.97     9.37     0  02:11        1.05
  YS02001664           JUNCTION     0.07     0.58     8.50     0  02:11        0.55
  YS02001745           JUNCTION     0.08     0.74     8.26     0  02:11        0.72
  YS02001748           JUNCTION     0.15     2.27     9.35     0  02:11        2.27
  YS02001751           JUNCTION     0.18     2.20     9.08     0  02:11        1.40
  YS02001754           JUNCTION     0.25     2.12     8.72     0  02:11        1.62
  YS02001757           JUNCTION     0.42     2.10     8.36     0  02:11        1.94
  YS02001759           JUNCTION     0.36     2.12     8.48     0  02:11        1.95
  YS02001762           JUNCTION     0.35     2.15     8.55     0  02:09        1.93
  YS02001765           JUNCTION     0.33     2.10     8.55     0  02:09        1.89
  YS02001767           JUNCTION     0.33     2.03     8.52     0  02:09        1.88
  YS02001770           JUNCTION     0.34     1.95     8.44     0  02:11        1.92
  YS02001774           JUNCTION     0.41     2.01     8.43     0  02:11        1.97
  YS02001779           JUNCTION     0.23     1.68     8.37     0  02:09        1.68
  YS02001783           JUNCTION     0.30     1.46     7.60     0  02:08        1.24
  YS02001784           JUNCTION     0.31     1.24     7.31     0  02:08        1.12
  YS02001786           JUNCTION     0.26     1.03     7.06     0  02:08        0.89
  YS02001788           JUNCTION     0.19     0.62     6.60     0  02:14        0.62
  YS02001790           JUNCTION     0.22     0.72     6.37     0  02:18        0.72
  YS02001791           JUNCTION     0.14     0.44     5.91     0  02:12        0.43
  YS02001793           JUNCTION     0.07     0.21     5.04     0  02:17        0.21
  YS02001882           JUNCTION     0.38     1.69     8.40     0  02:08        1.63
  YS02001884           JUNCTION     0.47     1.77     8.39     0  02:08        1.75
  YS02001887           JUNCTION     0.55     1.83     8.37     0  02:13        1.83
  YS02001890           JUNCTION     0.57     1.81     8.32     0  02:08        1.81
  YS02001895           JUNCTION     0.35     1.57     8.32     0  02:08        1.56
  YS02001898           JUNCTION     0.35     1.57     8.30     0  02:08        1.56
  YS02001901           JUNCTION     0.47     1.68     8.29     0  02:08        1.67
  YS02001904           JUNCTION     0.45     1.64     8.27     0  02:08        1.63
  YS02001907           JUNCTION     0.76     1.96     8.25     0  02:08        1.96
  YS02001910           JUNCTION     0.57     2.02     8.52     0  02:09        1.88
  YS02001915           JUNCTION     0.38     1.96     8.68     0  02:09        1.78
  YS02001918           JUNCTION     0.22     1.81     8.88     0  02:09        1.45
  YS02001920           JUNCTION     0.30     2.12     9.13     0  02:09        1.51
  YS02001923           JUNCTION     0.17     2.03     9.29     0  02:09        1.27
  YS02001926           JUNCTION     0.20     1.90     9.35     0  02:09        1.09
  YS02001929           JUNCTION     0.12     1.78     9.47     0  02:09        0.86
  YS02006553           JUNCTION     0.77     2.01     8.30     0  02:08        1.97
  YS02006556           JUNCTION     0.74     2.03     8.34     0  02:08        1.96
  YS02006558           JUNCTION     0.78     2.11     8.38     0  02:08        2.01
  YS02006561           JUNCTION     0.19     1.22     7.88     0  02:08        0.89
  YS02163301           JUNCTION     0.57     1.97     8.49     0  02:08        1.97
  YS02163601           JUNCTION     0.66     2.08     8.48     0  02:10        2.08
  YS02164001           JUNCTION     0.59     2.01     8.47     0  02:10        2.01
  CC-1                 OUTFALL      0.00     0.00     0.00     0  00:00        0.00
  CC-2                 OUTFALL      0.00     0.00     0.00     0  00:00        0.00
  JK-1                 OUTFALL      0.00     0.00     0.00     0  00:00        0.00
  JK-2                 OUTFALL      0.00     0.00     0.00     0  00:00        0.00
  WSC                  OUTFALL      0.16     0.29     0.96     0  02:36        0.29
  CC-storage           STORAGE      0.77     1.54     7.04     0  02:37        1.54
  JK-storage           STORAGE      1.46     4.21     5.01     0  02:05        4.21
  
  
  *******************
  Node Inflow Summary
  *******************
  
  -------------------------------------------------------------------------------------------------
                                  Maximum  Maximum                  Lateral       Total        Flow
                                  Lateral    Total  Time of Max      Inflow      Inflow     Balance
                                   Inflow   Inflow   Occurrence      Volume      Volume       Error
  Node                 Type           LPS      LPS  days hr:min    10^6 ltr    10^6 ltr     Percent
  -------------------------------------------------------------------------------------------------
  WS02003060           JUNCTION     16.53   529.60     0  02:33       0.476        3.85       0.064
  WS02003066           JUNCTION      0.00   511.80     0  02:33           0        3.38       0.042
  WS02003067           JUNCTION      0.00   511.36     0  02:33           0        3.38       0.127
  WS02003069           JUNCTION      0.32   529.63     0  02:34     0.00922        3.86       0.108
  WS02003072           JUNCTION      0.00   527.58     0  02:35           0        3.86       0.187
  WS02003073           JUNCTION      1.82   528.01     0  02:35      0.0524         3.9       0.152
  WS02004401           JUNCTION      0.00   530.88     0  02:30           0        3.49       0.302
  WS02004402           JUNCTION      0.00   529.46     0  02:30           0        3.48       0.306
  WS02004403           JUNCTION      0.00   526.82     0  02:31           0        3.47       0.299
  WS02004404           JUNCTION      0.16   527.51     0  02:31     0.00467        3.46       0.256
  WS02004405           JUNCTION      0.04   527.12     0  02:31      0.0011        3.45       0.362
  WS02004406           JUNCTION      0.00   525.91     0  02:31           0        3.44       0.617
  WS02004407           JUNCTION      0.00   526.00     0  02:31           0        3.42       0.040
  WS02004409           JUNCTION      0.00   525.38     0  02:31           0        3.42       0.087
  WS02004410           JUNCTION      0.00   519.90     0  02:32           0        3.41       0.136
  WS02004411           JUNCTION      0.00   517.84     0  02:32           0        3.41       0.171
  WS02004412           JUNCTION      0.00   515.36     0  02:32           0         3.4       0.227
  WS02004413           JUNCTION      0.00   512.89     0  02:33           0         3.4       0.401
  WS02006109           JUNCTION      1.23   554.42     0  02:26      0.0354        3.54       0.287
  WS02006110           JUNCTION      0.00   553.72     0  02:26           0        3.53       0.204
  WS02006111           JUNCTION      0.00   560.27     0  03:18           0        3.52       0.029
  WS02006112           JUNCTION      0.00   542.92     0  02:40           0        3.52       0.513
  WS02006113           JUNCTION      0.00   567.15     0  02:26           0        3.52       0.059
  WS02006115           JUNCTION      0.00   543.75     0  03:18           0         3.5       0.197
  WS02006116           JUNCTION      0.00   536.31     0  02:30           0        3.49       0.175
  WS02006228           JUNCTION      0.00   553.21     0  02:26           0        3.51       0.138
  WS02006229           JUNCTION      0.00   553.08     0  02:38           0        3.51       0.146
  WS02006230           JUNCTION     10.28   583.28     0  02:37       0.296        3.52       0.170
  WS02006231           JUNCTION      0.00   575.07     0  02:37           0        3.22       0.045
  WS02006232           JUNCTION      0.00   574.32     0  02:37           0        3.23       0.247
  WS02006234           JUNCTION      0.00   569.38     0  02:37           0        3.22      -0.409
  WS02006235           JUNCTION      0.00   562.87     0  02:37           0        3.37       0.425
  WS02006238           JUNCTION      0.00   425.06     0  02:40           0        2.71      -0.103
  WS02006239           JUNCTION      0.00   422.95     0  02:20           0        2.62      -0.058
  WS02006240           JUNCTION      0.00   419.56     0  02:30           0        2.57      -0.041
  WS02006242           JUNCTION      0.00   419.03     0  02:30           0        2.55      -0.069
  WS02006243           JUNCTION      0.00   419.50     0  02:30           0        2.53      -0.258
  WS02006245           JUNCTION      0.00   420.46     0  02:40           0        2.54       0.699
  WS02006247           JUNCTION      0.00   421.66     0  02:40           0        2.54      -0.060
  WS02006248           JUNCTION      0.00   422.84     0  02:40           0        2.53      -0.130
  WS02006249           JUNCTION      0.00   470.53     0  04:10           0        2.62       1.052
  WS02006251           JUNCTION      0.08   408.01     0  02:16     0.00222        2.62       0.070
  WS02006252           JUNCTION      0.00   400.00     0  00:00           0         2.6      -0.737
  WS02006256           JUNCTION      0.00   300.00     0  00:00           0       0.909      -3.819
  WSF200               JUNCTION      0.00   512.02     0  02:33           0        3.38       0.016
  YS02001580           JUNCTION      0.00    82.10     0  02:05           0       0.004      -3.014
  YS02001583           JUNCTION      0.00   150.91     0  02:04           0      0.0151      -4.257
  YS02001586           JUNCTION    660.88   660.88     0  02:15        1.47        1.48       0.069
  YS02001590           JUNCTION      0.00   318.13     0  02:31           0        1.21      -0.030
  YS02001593           JUNCTION      0.00   317.96     0  02:31           0        1.21       0.009
  YS02001596           JUNCTION      0.00   317.89     0  02:15           0        1.21      -0.007
  YS02001600           JUNCTION      0.00   318.06     0  02:25           0        1.21       0.010
  YS02001601           JUNCTION   1201.55  1519.12     0  02:14        2.05        3.26       0.012
  YS02001602           JUNCTION      0.00   509.79     0  02:04           0        2.13       0.017
  YS02001605           JUNCTION      0.00   510.19     0  02:04           0        2.03       0.024
  YS02001607           JUNCTION      0.00   509.33     0  02:04           0        2.03       0.100
  YS02001610           JUNCTION      0.00   620.32     0  02:15           0        2.16       0.098
  YS02001613           JUNCTION      0.00   508.07     0  02:04           0        1.79       0.099
  YS02001616           JUNCTION      0.00   506.91     0  02:04           0        1.79       0.031
  YS02001619           JUNCTION   1178.22  1178.22     0  02:15        2.34           4       0.005
  YS02001622           JUNCTION      0.00   931.80     0  02:08           0        3.87       0.003
  YS02001625           JUNCTION      0.00  1237.86     0  02:15           0        3.99       0.210
  YS02001629           JUNCTION      0.00   931.29     0  02:08           0        3.28       0.028
  YS02001633           JUNCTION    903.97  1389.76     0  02:08        1.49        4.61       0.075
  YS02001641           JUNCTION      0.00  1392.61     0  02:08           0        4.47       0.063
  YS02001644           JUNCTION    809.42  1807.68     0  02:08        1.29        5.75       0.053
  YS02001647           JUNCTION      0.00  1807.61     0  02:08           0        5.54       0.007
  YS02001649           JUNCTION      0.00  2057.62     0  02:08           0        6.72       0.001
  YS02001652           JUNCTION      0.00   823.80     0  02:12           0        1.17      -0.108
  YS02001655           JUNCTION      0.15   823.82     0  02:12     0.00443        1.17       0.029
  YS02001658           JUNCTION      0.00   823.69     0  02:12           0        1.17      -0.029
  YS02001661           JUNCTION      0.00   829.81     0  02:11           0        1.17       0.021
  YS02001664           JUNCTION    790.65   790.65     0  02:13        1.17        1.17      -0.008
  YS02001745           JUNCTION    509.23   509.23     0  02:13       0.714       0.714       0.201
  YS02001748           JUNCTION      0.04   580.74     0  02:10      0.0013       0.714      -0.315
  YS02001751           JUNCTION      0.01   532.32     0  02:13    0.000317       0.719       0.131
  YS02001754           JUNCTION      0.26   533.11     0  02:13     0.00749        0.73      -0.180
  YS02001757           JUNCTION      0.00  3509.07     0  02:12           0        9.87       0.045
  YS02001759           JUNCTION    707.42  1403.30     0  02:13       0.984        2.42      -0.010
  YS02001762           JUNCTION      0.00   769.89     0  02:11           0        1.44       0.002
  YS02001765           JUNCTION      0.00   770.46     0  02:11           0        1.44      -0.003
  YS02001767           JUNCTION      0.54   770.77     0  02:11      0.0154        1.44      -0.004
  YS02001770           JUNCTION    990.07   990.07     0  02:14        1.51        1.55      -0.014
  YS02001774           JUNCTION      0.00   324.31     0  02:14           0       0.142       0.745
  YS02001779           JUNCTION      0.01   324.42     0  02:14    0.000144      0.0992      -0.646
  YS02001783           JUNCTION      0.00  1163.98     0  02:13           0        3.71       0.004
  YS02001784           JUNCTION      1.06  1165.65     0  02:13      0.0305        3.74       0.014
  YS02001786           JUNCTION      0.06  1165.32     0  02:13     0.00162        3.74       0.017
  YS02001788           JUNCTION      0.07  1165.81     0  02:13     0.00204        3.74       0.009
  YS02001790           JUNCTION      0.15  1174.94     0  02:12     0.00446        3.75       0.023
  YS02001791           JUNCTION      0.00  1283.97     0  02:14           0        3.75      -0.021
  YS02001793           JUNCTION      0.00  1235.34     0  02:17           0        3.75       0.006
  YS02001882           JUNCTION      0.00    33.46     0  02:06           0      0.0126       4.873
  YS02001884           JUNCTION      0.00    70.06     0  02:06           0      0.0483       5.241
  YS02001887           JUNCTION    770.35   771.71     0  02:13        1.03        1.07       0.418
  YS02001890           JUNCTION      0.00   771.62     0  02:13           0        1.03       0.485
  YS02001895           JUNCTION      0.00   517.22     0  02:15           0       0.956       0.155
  YS02001898           JUNCTION      0.00   517.68     0  02:16           0       0.955       0.014
  YS02001901           JUNCTION      0.00   517.75     0  02:17           0       0.957       0.340
  YS02001904           JUNCTION      0.00   517.51     0  02:17           0       0.961       0.283
  YS02001907           JUNCTION      0.00  1830.46     0  02:13           0        3.22       0.534
  YS02001910           JUNCTION      0.00  1315.32     0  02:13           0        2.27       0.312
  YS02001915           JUNCTION    874.96  1314.66     0  02:13        1.43        2.31       0.066
  YS02001918           JUNCTION      0.00   457.60     0  02:13           0         0.9       0.005
  YS02001920           JUNCTION      2.87   457.18     0  02:13      0.0827       0.884       0.104
  YS02001923           JUNCTION      0.04   452.10     0  02:13     0.00109       0.786      -0.042
  YS02001926           JUNCTION      0.05   480.99     0  02:09      0.0015       0.765       0.014
  YS02001929           JUNCTION    421.38   421.38     0  02:14       0.754       0.755      -0.033
  YS02006553           JUNCTION      0.00   800.24     0  02:28           0        2.25       0.530
  YS02006556           JUNCTION      0.00   800.78     0  02:28           0        2.25       0.355
  YS02006558           JUNCTION   1013.80  1164.65     0  02:12        1.51        3.74       0.098
  YS02006561           JUNCTION      0.00  1164.46     0  02:13           0        3.71      -0.002
  YS02163301           JUNCTION      0.00   932.66     0  02:08           0        3.27       0.046
  YS02163601           JUNCTION      0.11  1390.02     0  02:08     0.00317        4.47       0.112
  YS02164001           JUNCTION      0.00  1389.79     0  02:08           0        4.47       0.054
  CC-1                 OUTFALL       0.00   683.00     0  00:00           0         4.5       0.000
  CC-2                 OUTFALL       0.00   683.00     0  00:00           0        3.63       0.000
  JK-1                 OUTFALL       0.00  1000.00     0  00:00           0        1.81       0.000
  JK-2                 OUTFALL       0.00  1000.00     0  00:00           0        1.16       0.000
  WSC                  OUTFALL       0.00   526.28     0  02:36           0        3.89       0.000
  CC-storage           STORAGE       0.00  3509.02     0  02:12           0        12.1      -0.256
  JK-storage           STORAGE       0.00  1235.52     0  02:17           0         3.9      -0.443
  
  
  **********************
  Node Surcharge Summary
  **********************
  
  Surcharging occurs when water rises above the top of the highest conduit.
  ---------------------------------------------------------------------
                                               Max. Height   Min. Depth
                                   Hours       Above Crown    Below Rim
  Node                 Type      Surcharged         Meters       Meters
  ---------------------------------------------------------------------
  WS02006109           JUNCTION        1.23          0.371        1.449
  WS02006110           JUNCTION        0.18          0.316        1.534
  WS02006112           JUNCTION        0.12          0.038        1.642
  WS02006228           JUNCTION        1.22          0.300        1.900
  WS02006229           JUNCTION        1.23          0.350        2.100
  WS02006230           JUNCTION        0.19          0.231        1.339
  WS02006231           JUNCTION        0.24          0.314        1.216
  WS02006232           JUNCTION        1.32          0.778        0.702
  WS02006234           JUNCTION        0.41          0.976        0.264
  WS02006235           JUNCTION        1.20          0.818        0.472
  WS02006238           JUNCTION        1.25          0.838        0.592
  WS02006239           JUNCTION        1.22          1.143        0.147
  WS02006240           JUNCTION        1.23          1.390        0.000
  WS02006242           JUNCTION        1.34          0.820        0.000
  WS02006243           JUNCTION        1.23          0.770        0.000
  WS02006245           JUNCTION        1.22          0.515        0.335
  WS02006247           JUNCTION        1.24          0.505        0.255
  WS02006248           JUNCTION        1.20          0.380        0.000
  WS02006249           JUNCTION        1.22          0.390        0.000
  WS02006251           JUNCTION        0.27          0.386        0.794
  WS02006252           JUNCTION        1.63          1.100        0.000
  WS02006256           JUNCTION        6.59          2.050        0.000
  YS02001580           JUNCTION        0.53          0.450        0.000
  YS02001583           JUNCTION        0.54          0.496        0.004
  YS02001586           JUNCTION        0.65          0.510        0.000
  YS02001590           JUNCTION        0.72          0.733        0.017
  YS02001593           JUNCTION        0.72          0.699        0.141
  YS02001596           JUNCTION        0.83          0.949        0.121
  YS02001600           JUNCTION        0.98          1.190        0.000
  YS02001601           JUNCTION        1.32          1.440        0.000
  YS02001602           JUNCTION        1.22          1.270        0.000
  YS02001605           JUNCTION        1.17          1.180        0.000
  YS02001607           JUNCTION        0.69          0.659        0.021
  YS02001610           JUNCTION        0.71          0.680        0.000
  YS02001613           JUNCTION        0.68          0.700        0.000
  YS02001616           JUNCTION        0.64          0.610        0.000
  YS02001619           JUNCTION        0.63          0.610        0.000
  YS02001622           JUNCTION        0.63          0.620        0.000
  YS02001625           JUNCTION        0.80          0.780        0.000
  YS02001629           JUNCTION        0.58          0.470        0.000
  YS02001633           JUNCTION        0.82          1.036        0.024
  YS02001641           JUNCTION        0.74          0.981        0.119
  YS02001644           JUNCTION        0.72          0.920        0.000
  YS02001647           JUNCTION        0.50          0.827        0.073
  YS02001649           JUNCTION        0.60          1.050        0.000
  YS02001652           JUNCTION        0.43          1.130        0.000
  YS02001655           JUNCTION        0.30          1.200        0.000
  YS02001658           JUNCTION        0.16          1.300        0.000
  YS02001661           JUNCTION        0.01          0.896        0.494
  YS02001748           JUNCTION        0.08          1.190        0.000
  YS02001751           JUNCTION        0.21          1.200        0.000
  YS02001754           JUNCTION        0.34          1.066        0.084
  YS02001757           JUNCTION        0.65          1.099        0.111
  YS02001759           JUNCTION        0.56          1.117        0.093
  YS02001762           JUNCTION        0.53          1.150        0.000
  YS02001765           JUNCTION        0.49          1.100        0.000
  YS02001767           JUNCTION        0.46          1.030        0.000
  YS02001770           JUNCTION        0.44          0.920        0.000
  YS02001774           JUNCTION        0.51          1.005        0.045
  YS02001779           JUNCTION        0.34          0.680        0.000
  YS02001783           JUNCTION        0.48          0.660        0.940
  YS02001784           JUNCTION        0.46          0.439        1.051
  YS02001786           JUNCTION        0.36          0.235        1.195
  YS02001882           JUNCTION        0.43          0.687        0.143
  YS02001884           JUNCTION        0.44          0.708        0.162
  YS02001887           JUNCTION        0.47          0.779        0.171
  YS02001890           JUNCTION        0.48          0.760        0.000
  YS02001895           JUNCTION        0.42          0.571        0.179
  YS02001898           JUNCTION        0.41          0.538        0.202
  YS02001901           JUNCTION        0.46          0.679        0.191
  YS02001904           JUNCTION        0.45          0.638        0.212
  YS02001907           JUNCTION        0.69          0.950        0.000
  YS02001910           JUNCTION        0.51          1.016        0.084
  YS02001915           JUNCTION        0.43          0.964        0.036
  YS02001918           JUNCTION        0.34          0.810        0.000
  YS02001920           JUNCTION        0.36          1.120        0.020
  YS02001923           JUNCTION        0.05          0.820        0.000
  YS02001926           JUNCTION        0.09          0.900        0.000
  YS02001929           JUNCTION        0.01          0.780        0.000
  YS02006553           JUNCTION        0.71          1.011        0.179
  YS02006556           JUNCTION        0.60          0.994        0.356
  YS02006558           JUNCTION        0.59          1.012        0.388
  YS02006561           JUNCTION        0.32          0.417        0.733
  YS02163301           JUNCTION        0.80          0.972        0.058
  YS02163601           JUNCTION        0.85          1.080        0.000
  YS02164001           JUNCTION        0.75          1.010        0.090
  
  
  *********************
  Node Flooding Summary
  *********************
  
  Flooding refers to all water that overflows a node, whether it ponds or not.
  --------------------------------------------------------------------------
                                                             Total   Maximum
                                 Maximum   Time of Max       Flood    Ponded
                        Hours       Rate    Occurrence      Volume     Depth
  Node                 Flooded       LPS   days hr:min    10^6 ltr    Meters
  --------------------------------------------------------------------------
  WS02006240              0.01     61.83      0  03:30       0.000     0.000
  WS02006242              0.01     63.73      0  03:30       0.000     0.000
  WS02006243              0.01     36.43      0  03:30       0.000     0.000
  WS02006248              0.01      3.90      0  02:40       0.000     0.000
  WS02006249              0.26    107.92      0  02:16       0.061     0.000
  WS02006252              0.01    245.63      0  00:00       0.000     0.000
  WS02006256              0.84    293.19      0  00:00       0.230     0.000
  YS02001580              0.01     70.42      0  02:05       0.000     0.000
  YS02001586              0.41    343.31      0  02:15       0.253     0.000
  YS02001600              0.01      1.84      0  02:05       0.000     0.000
  YS02001601              0.58   1121.25      0  02:14       1.130     0.000
  YS02001602              0.46     62.02      0  02:22       0.093     0.000
  YS02001605              0.01      0.15      0  02:31       0.000     0.000
  YS02001610              0.40    619.97      0  02:15       0.502     0.000
  YS02001613              0.01      0.31      0  02:08       0.000     0.000
  YS02001616              0.01      0.69      0  02:08       0.000     0.000
  YS02001619              0.01      1.28      0  02:08       0.000     0.000
  YS02001622              0.01      0.29      0  02:08       0.000     0.000
  YS02001625              0.37   1237.51      0  02:15       0.848     0.000
  YS02001629              0.09    181.95      0  02:12       0.033     0.000
  YS02001644              0.14    656.63      0  02:13       0.202     0.000
  YS02001649              0.01     12.71      0  02:11       0.000     0.000
  YS02001652              0.01     13.05      0  02:10       0.000     0.000
  YS02001655              0.01     90.08      0  02:10       0.000     0.000
  YS02001658              0.01    329.33      0  02:10       0.000     0.000
  YS02001748              0.01    350.82      0  02:11       0.000     0.000
  YS02001751              0.01     13.68      0  02:11       0.000     0.000
  YS02001762              0.01     38.70      0  02:09       0.000     0.000
  YS02001765              0.01     31.98      0  02:09       0.000     0.000
  YS02001767              0.01    126.95      0  02:09       0.000     0.000
  YS02001770              0.01     10.63      0  02:11       0.000     0.000
  YS02001779              0.12    324.37      0  02:14       0.082     0.000
  YS02001890              0.15    255.75      0  02:13       0.066     0.000
  YS02001907              0.29   1681.77      0  02:13       0.967     0.000
  YS02001918              0.01     91.53      0  02:09       0.001     0.000
  YS02001923              0.01    231.10      0  02:09       0.000     0.000
  YS02001926              0.01    300.14      0  02:09       0.001     0.000
  YS02001929              0.01    255.44      0  02:09       0.001     0.000
  YS02163601              0.01      3.75      0  02:10       0.000     0.000
  
  
  **********************
  Storage Volume Summary
  **********************
  
  ------------------------------------------------------------------------------------------------
                         Average    Avg   Evap  Exfil     Maximum    Max    Time of Max    Maximum
                          Volume   Pcnt   Pcnt   Pcnt      Volume   Pcnt     Occurrence    Outflow
  Storage Unit           1000 m³   Full   Loss   Loss     1000 m³   Full    days hr:min        LPS
  ------------------------------------------------------------------------------------------------
  CC-storage               2.140   33.4    0.0    0.0       4.299   67.1       0  02:37    1783.53
  JK-storage               0.074   25.2    0.0    0.0       0.212   72.6       0  02:05    2300.00
  
  
  ***********************
  Outfall Loading Summary
  ***********************
  
  -----------------------------------------------------------
                         Flow       Avg       Max       Total
                         Freq      Flow      Flow      Volume
  Outfall Node           Pcnt       LPS       LPS    10^6 ltr
  -----------------------------------------------------------
  CC-1                  41.51    683.00    683.00       4.496
  CC-2                  33.81    683.00    683.00       3.631
  JK-1                  13.08   1000.00   1000.00       1.814
  JK-2                   7.00   1000.00   1000.00       1.159
  WSC                   99.94    199.58    526.28       3.895
  -----------------------------------------------------------
  System                39.07   3565.58   3403.44      14.994
  
  
  ********************
  Link Flow Summary
  ********************
  
  -----------------------------------------------------------------------------
                                 Maximum  Time of Max   Maximum    Max/    Max/
                                  |Flow|   Occurrence   |Veloc|    Full    Full
  Link                 Type          LPS  days hr:min     m/sec    Flow   Depth
  -----------------------------------------------------------------------------
  1                    CONDUIT    526.28     0  02:36      2.78    0.18    0.29
  WS02003060WS02003069 CONDUIT    529.31     0  02:34      1.63    0.21    0.33
  WS02003066WSF200     CONDUIT    512.02     0  02:33      2.82    0.09    0.22
  WS02003067WS02003066 CONDUIT    511.80     0  02:33      1.17    0.16    0.41
  WS02003069WS02003072 CONDUIT    527.58     0  02:35      1.35    0.25    0.38
  WS02003072WS02003073 CONDUIT    526.19     0  02:35      1.41    1.14    0.37
  WS02004401WS02004402 CONDUIT    529.46     0  02:30      0.98    0.64    0.85
  WS02004402WS02004403 CONDUIT    526.82     0  02:31      0.97    0.76    0.88
  WS02004403WS02004404 CONDUIT    527.35     0  02:31      0.92    0.38    0.92
  WS02004404WS02004405 CONDUIT    527.08     0  02:31      1.08    5.16    0.95
  WS02004405WS02004406 CONDUIT    525.91     0  02:31      0.99    1.04    0.95
  WS02004406WS02004407 CONDUIT    526.00     0  02:31      1.03    0.24    0.62
  WS02004407WS02004409 CONDUIT    525.38     0  02:31      1.50    0.19    0.47
  WS02004409WS02004410 CONDUIT    519.90     0  02:32      0.98    0.67    0.66
  WS02004410WS02004411 CONDUIT    517.84     0  02:32      0.93    0.71    0.67
  WS02004411WS02004412 CONDUIT    515.36     0  02:32      0.91    0.73    0.68
  WS02004412WS02004413 CONDUIT    512.89     0  02:33      0.80    0.34    0.76
  WS02004413WS02003067 CONDUIT    511.36     0  02:33      1.08    0.22    0.58
  WS02006109WS02006110 CONDUIT    553.72     0  02:26      1.10    1.06    1.00
  WS02006110WS02006113 CONDUIT    567.15     0  02:26      1.37    0.52    0.78
  WS02006111WS02006112 CONDUIT    542.92     0  02:40      1.81    0.26    0.67
  WS02006112WS02006115 CONDUIT    543.75     0  03:18      0.80    0.32    0.86
  WS02006113WS02006111 CONDUIT    560.27     0  03:18      2.46    0.67    0.46
  WS02006115WS02006116 CONDUIT    536.31     0  02:30      0.97    0.69    0.75
  WS02006116WS02004401 CONDUIT    530.88     0  02:30      0.98    0.73    0.83
  WS02006228WS02006109 CONDUIT    553.19     0  02:26      1.10    2.42    1.00
  WS02006229WS02006228 CONDUIT    553.21     0  02:26      1.14    1.83    1.00
  WS02006230WS02006229 CONDUIT    553.08     0  02:38      1.44   12.31    1.00
  WS02006231WS02006230 CONDUIT    573.01     0  02:37      1.56    8.69    1.00
  WS02006232WS02006231 CONDUIT    575.07     0  02:37      1.50    1.21    1.00
  WS02006234WS02006232 CONDUIT    574.32     0  02:37      1.49    1.16    1.00
  WS02006235WS02006234 CONDUIT    569.38     0  02:37      1.48    6.01    1.00
  WS02006238WS02006235 CONDUIT    426.61     0  02:40      1.45    0.95    1.00
  WS02006239WS02006238 CONDUIT    425.06     0  02:40      1.10    1.36    1.00
  WS02006240WS02006239 CONDUIT    422.95     0  02:20      1.24    1.33    1.00
  WS02006242WS02006240 CONDUIT    419.56     0  02:30      1.13    1.67    1.00
  WS02006243WS02006242 CONDUIT    419.03     0  02:30      1.40    0.90    1.00
  WS02006245WS02006243 CONDUIT    419.50     0  02:30      1.45    1.24    1.00
  WS02006247WS02006245 CONDUIT    420.46     0  02:40      1.43    3.33    1.00
  WS02006248WS02006247 CONDUIT    421.66     0  02:40      1.44    0.92    1.00
  WS02006249WS02006248 CONDUIT    422.84     0  02:40      1.36    2.32    1.00
  WS02006251WS02006249 CONDUIT    470.53     0  04:10      1.99    1.36    1.00
  WS02006252WS02006251 CONDUIT    407.93     0  02:16     24.61    1.50    1.00
  WS02006256WS02006235 CONDUIT    288.91     0  00:00      4.23    3.06    1.00
  WSF200WS02003060     CONDUIT    513.07     0  02:33      2.04    0.11    0.27
  YS02001580YS02001583 CONDUIT     82.10     0  02:05      0.60    0.32    1.00
  YS02001583YS02001586 CONDUIT    150.91     0  02:04      0.63    0.23    1.00
  YS02001586YS02001590 CONDUIT    318.13     0  02:31      1.25    0.56    1.00
  YS02001590YS02001593 CONDUIT    317.96     0  02:31      1.12    2.00    1.00
  YS02001593YS02001596 CONDUIT    317.89     0  02:15      1.75    0.50    1.00
  YS02001596YS02001600 CONDUIT    318.06     0  02:25      1.25    0.62    1.00
  YS02001600YS02001601 CONDUIT    318.44     0  02:31      1.13    0.55    1.00
  YS02001601YS02001602 CONDUIT    509.79     0  02:04      1.80    1.84    1.00
  YS02001602YS02001605 CONDUIT    510.19     0  02:04      1.80   10.80    1.00
  YS02001605YS02001607 CONDUIT    509.33     0  02:04      1.80    2.79    1.00
  YS02001607YS02001610 CONDUIT    508.83     0  02:04      0.65    0.48    1.00
  YS02001610YS02001613 CONDUIT    508.07     0  02:04      0.65    0.59    1.00
  YS02001613YS02001616 CONDUIT    506.91     0  02:04      0.65    0.43    1.00
  YS02001616YS02001619 CONDUIT    500.82     0  02:04      0.66    0.87    1.00
  YS02001619YS02001622 CONDUIT    931.80     0  02:08      1.19    1.37    1.00
  YS02001622YS02001625 CONDUIT    931.60     0  02:08      1.19    0.50    1.00
  YS02001625YS02001629 CONDUIT    931.29     0  02:08      1.19    0.44    1.00
  YS02001629YS02163301 CONDUIT    932.66     0  02:08      1.19    1.15    1.00
  YS02001633YS02163601 CONDUIT   1389.91     0  02:08      1.77    1.46    1.00
  YS02001641YS02001644 CONDUIT   1396.13     0  02:08      1.78    4.51    1.00
  YS02001644YS02001647 CONDUIT   1807.61     0  02:08      2.31    1.06    1.00
  YS02001647YS02001649 CONDUIT   1821.06     0  02:08      2.35    0.96    1.00
  YS02001649YS02001757 CONDUIT   2064.66     0  02:08      2.63    1.25    1.00
  YS02001652YS02001649 CONDUIT    824.29     0  02:12      1.05    0.41    1.00
  YS02001655YS02001652 CONDUIT    823.80     0  02:12      1.29    0.40    1.00
  YS02001658YS02001655 CONDUIT    823.66     0  02:12      1.89    0.35    1.00
  YS02001661YS02001658 CONDUIT    823.69     0  02:12      2.34    0.32    1.00
  YS02001664YS02001661 CONDUIT    829.81     0  02:11      2.33    0.26    0.78
  YS02001745YS02001748 CONDUIT    580.69     0  02:10      2.19    0.22    0.87
  YS02001748YS02001751 CONDUIT    532.31     0  02:13      1.72    0.27    1.00
  YS02001751YS02001754 CONDUIT    532.85     0  02:13      1.43    0.26    1.00
  YS02001754YS02001757 CONDUIT    533.45     0  02:13      0.68    0.21    1.00
  YS02001757CaochengTiaoxuchi CONDUIT   3509.02     0  02:12      4.48    1.52    1.00
  YS02001759YS02001757 CONDUIT   1404.28     0  02:13      1.79    1.00    1.00
  YS02001762YS02001759 CONDUIT    769.98     0  02:11      0.98    0.89    1.00
  YS02001765YS02001762 CONDUIT    769.89     0  02:11      0.98    0.72    1.00
  YS02001767YS02001765 CONDUIT    770.46     0  02:11      0.98    0.97    1.00
  YS02001770YS02001767 CONDUIT    770.24     0  02:11      0.98    3.05    1.00
  YS02001774YS02001770 CONDUIT    324.31     0  02:14      0.41    0.21    1.00
  YS02001779YS02001774 CONDUIT    324.42     0  02:14      0.41    0.16    1.00
  YS02001783YS02001784 CONDUIT   1164.59     0  02:13      2.32    1.61    1.00
  YS02001784YS02001785 CONDUIT   1165.26     0  02:13      2.32    2.71    1.00
  YS02001786YS02001788 CONDUIT   1165.74     0  02:13      2.48    2.25    0.89
  YS02001788YS02001790 CONDUIT   1174.78     0  02:12      2.71    0.87    0.84
  YS02001790YS02001791 CONDUIT   1283.97     0  02:14      3.41    1.40    0.70
  YS02001791YS02001793 CONDUIT   1235.34     0  02:17      6.77    0.53    0.40
  YS02001793JiankangQianchi CONDUIT   1235.52     0  02:17      2.48    0.10    0.61
  YS02001882YS02001884 CONDUIT     33.46     0  02:06      0.11    0.04    1.00
  YS02001884YS02001887 CONDUIT     70.06     0  02:06      0.09    0.09    1.00
  YS02001887YS02001890 CONDUIT    771.62     0  02:13      0.98    1.32    1.00
  YS02001890YS02001895 CONDUIT    517.22     0  02:15      0.66    0.24    1.00
  YS02001895YS02001898 CONDUIT    517.68     0  02:16      0.66    0.90    1.00
  YS02001898YS02001901 CONDUIT    517.75     0  02:17      0.66    0.33    1.00
  YS02001901YS02001904 CONDUIT    517.51     0  02:17      0.66    0.80    1.00
  YS02001904YS02001907 CONDUIT    517.35     0  02:17      0.66    0.18    1.00
  YS02001907YS02006553 CONDUIT    800.24     0  02:28      0.89    0.94    1.00
  YS02001910YS02001907 CONDUIT   1315.67     0  02:13      1.68    0.74    1.00
  YS02001915YS02001910 CONDUIT   1315.32     0  02:13      1.67    0.65    1.00
  YS02001918YS02001915 CONDUIT    458.69     0  02:13      0.58    0.25    1.00
  YS02001920YS02001918 CONDUIT    457.60     0  02:13      0.65    0.44    1.00
  YS02001923YS02001920 CONDUIT    454.31     0  02:13      0.69    0.20    1.00
  YS02001926YS02001923 CONDUIT    452.06     0  02:13      0.96    0.65    1.00
  YS02001929YS02001926 CONDUIT    451.40     0  02:13      1.12    0.21    1.00
  YS02006553YS02006556 CONDUIT    800.78     0  02:28      1.02    0.69    1.00
  YS02006556YS02006558 CONDUIT    802.06     0  02:28      1.02    0.63    1.00
  YS02006558YS02006561 CONDUIT   1164.46     0  02:13      4.12    2.57    1.00
  YS02006561YS02001783 CONDUIT   1163.98     0  02:13      2.32    0.60    1.00
  YS02163301YS02001633 CONDUIT    932.19     0  02:08      1.19    0.88    1.00
  YS02163601YS02164001 CONDUIT   1389.79     0  02:08      1.77    1.23    1.00
  YS02164001YS02001641 CONDUIT   1392.61     0  02:08      1.77    1.90    1.00
  CC-R1                PUMP       683.00     0  00:00              1.00
  CC-R2                PUMP       683.00     0  00:00              1.00
  CC-S1                PUMP       200.00     0  00:00              1.00
  CC-S2                PUMP       200.00     0  00:00              1.00
  JK-R1                PUMP      1000.00     0  00:00              1.00
  JK-R2                PUMP      1000.00     0  00:00              1.00
  JK-S                 PUMP       300.00     0  00:00              1.00
  
  
  ***************************
  Flow Classification Summary
  ***************************
  
  -------------------------------------------------------------------------------------
                      Adjusted    ---------- Fraction of Time in Flow Class ---------- 
                       /Actual         Up    Down  Sub   Sup   Up    Down  Norm  Inlet 
  Conduit               Length    Dry  Dry   Dry   Crit  Crit  Crit  Crit  Ltd   Ctrl  
  -------------------------------------------------------------------------------------
  1                       1.00   0.00  0.00  0.00  0.00  1.00  0.00  0.00  0.34  0.00
  WS02003060WS02003069    1.00   0.00  0.00  0.00  0.97  0.03  0.00  0.00  0.77  0.00
  WS02003066WSF200        1.00   0.12  0.00  0.00  0.00  0.88  0.00  0.00  0.83  0.00
  WS02003067WS02003066    1.00   0.10  0.02  0.00  0.88  0.00  0.00  0.00  0.00  0.00
  WS02003069WS02003072    1.00   0.00  0.00  0.00  0.99  0.01  0.00  0.00  0.81  0.00
  WS02003072WS02003073    1.00   0.00  0.00  0.00  0.00  0.00  0.00  1.00  0.00  0.00
  WS02004401WS02004402    1.00   0.02  0.00  0.00  0.98  0.00  0.00  0.00  0.00  0.00
  WS02004402WS02004403    1.00   0.02  0.00  0.00  0.97  0.00  0.00  0.00  0.00  0.00
  WS02004403WS02004404    1.00   0.00  0.03  0.00  0.97  0.00  0.00  0.00  0.00  0.00
  WS02004404WS02004405    1.00   0.00  0.00  0.00  1.00  0.00  0.00  0.00  0.01  0.00
  WS02004405WS02004406    1.00   0.00  0.00  0.00  1.00  0.00  0.00  0.00  0.00  0.00
  WS02004406WS02004407    1.00   0.00  0.05  0.00  0.95  0.00  0.00  0.00  0.00  0.00
  WS02004407WS02004409    1.00   0.05  0.00  0.00  0.94  0.01  0.00  0.00  0.95  0.00
  WS02004409WS02004410    1.00   0.05  0.00  0.00  0.95  0.00  0.00  0.00  0.03  0.00
  WS02004410WS02004411    1.00   0.05  0.00  0.00  0.95  0.00  0.00  0.00  0.01  0.00
  WS02004411WS02004412    1.00   0.05  0.00  0.00  0.95  0.00  0.00  0.00  0.00  0.00
  WS02004412WS02004413    1.00   0.05  0.00  0.00  0.94  0.00  0.00  0.00  0.01  0.00
  WS02004413WS02003067    1.00   0.06  0.04  0.00  0.00  0.00  0.90  0.00  0.00  0.00
  WS02006109WS02006110    1.00   0.00  0.01  0.00  0.98  0.00  0.01  0.00  0.00  0.00
  WS02006110WS02006113    1.00   0.01  0.01  0.00  0.98  0.00  0.00  0.00  0.00  0.00
  WS02006111WS02006112    1.00   0.02  0.00  0.00  0.98  0.00  0.00  0.00  0.98  0.00
  WS02006112WS02006115    1.00   0.02  0.00  0.00  0.97  0.00  0.00  0.00  0.00  0.00
  WS02006113WS02006111    1.00   0.02  0.00  0.00  0.00  0.98  0.00  0.00  0.10  0.00
  WS02006115WS02006116    1.00   0.02  0.00  0.00  0.97  0.00  0.00  0.01  0.00  0.00
  WS02006116WS02004401    1.00   0.02  0.00  0.00  0.98  0.00  0.00  0.00  0.00  0.00
  WS02006228WS02006109    1.00   0.00  0.00  0.00  1.00  0.00  0.00  0.00  0.00  0.00
  WS02006229WS02006228    1.00   0.00  0.00  0.00  0.99  0.00  0.00  0.01  0.00  0.00
  WS02006230WS02006229    1.00   0.00  0.00  0.00  0.99  0.00  0.00  0.01  0.03  0.00
  WS02006231WS02006230    1.00   0.00  0.00  0.00  0.19  0.00  0.81  0.00  0.00  0.00
  WS02006232WS02006231    1.00   0.00  0.00  0.00  0.99  0.00  0.01  0.00  0.00  0.00
  WS02006234WS02006232    1.00   0.00  0.00  0.00  1.00  0.00  0.00  0.00  0.05  0.00
  WS02006235WS02006234    1.00   0.00  0.00  0.00  0.87  0.00  0.13  0.00  0.00  0.00
  WS02006238WS02006235    1.00   0.00  0.00  0.00  1.00  0.00  0.00  0.00  0.00  0.00
  WS02006239WS02006238    1.00   0.00  0.00  0.00  1.00  0.00  0.00  0.00  0.17  0.00
  WS02006240WS02006239    1.00   0.00  0.00  0.00  0.64  0.00  0.00  0.35  0.05  0.00
  WS02006242WS02006240    1.00   0.00  0.00  0.00  0.99  0.00  0.01  0.00  0.00  0.00
  WS02006243WS02006242    1.00   0.00  0.00  0.00  0.99  0.00  0.00  0.01  0.68  0.00
  WS02006245WS02006243    1.00   0.00  0.00  0.00  0.74  0.00  0.00  0.26  0.01  0.00
  WS02006247WS02006245    1.00   0.00  0.00  0.00  0.96  0.00  0.00  0.04  0.00  0.00
  WS02006248WS02006247    1.00   0.00  0.00  0.00  0.98  0.00  0.00  0.02  0.56  0.00
  WS02006249WS02006248    1.00   0.00  0.00  0.00  0.40  0.00  0.60  0.00  0.00  0.00
  WS02006251WS02006249    1.00   0.00  0.00  0.00  0.99  0.01  0.00  0.00  0.63  0.00
  WS02006252WS02006251    1.00   0.00  0.63  0.00  0.03  0.00  0.33  0.00  0.00  0.00
  WS02006256WS02006235    1.00   0.00  0.00  0.00  0.98  0.02  0.00  0.00  0.01  0.00
  WSF200WS02003060        1.00   0.00  0.12  0.00  0.46  0.42  0.00  0.00  0.63  0.00
  YS02001580YS02001583    1.00   0.26  0.56  0.00  0.18  0.00  0.00  0.00  0.65  0.00
  YS02001583YS02001586    1.00   0.42  0.34  0.00  0.23  0.00  0.00  0.00  0.66  0.00
  YS02001586YS02001590    1.00   0.13  0.00  0.00  0.43  0.04  0.00  0.40  0.38  0.00
  YS02001590YS02001593    1.00   0.13  0.01  0.00  0.10  0.00  0.76  0.00  0.00  0.00
  YS02001593YS02001596    1.00   0.14  0.00  0.00  0.12  0.01  0.00  0.73  0.02  0.00
  YS02001596YS02001600    1.00   0.14  0.00  0.00  0.19  0.01  0.00  0.66  0.05  0.00
  YS02001600YS02001601    1.00   0.13  0.01  0.00  0.86  0.00  0.00  0.00  0.61  0.00
  YS02001601YS02001602    1.00   0.13  0.01  0.00  0.86  0.00  0.00  0.00  0.00  0.00
  YS02001602YS02001605    1.00   0.14  0.00  0.00  0.86  0.00  0.00  0.00  0.00  0.00
  YS02001605YS02001607    1.00   0.14  0.00  0.00  0.86  0.00  0.00  0.00  0.00  0.00
  YS02001607YS02001610    1.00   0.13  0.01  0.00  0.86  0.00  0.00  0.00  0.02  0.00
  YS02001610YS02001613    1.00   0.13  0.00  0.00  0.87  0.00  0.00  0.00  0.01  0.00
  YS02001613YS02001616    1.00   0.13  0.00  0.00  0.87  0.00  0.00  0.00  0.01  0.00
  YS02001616YS02001619    1.00   0.13  0.00  0.00  0.87  0.00  0.00  0.00  0.00  0.00
  YS02001619YS02001622    1.00   0.13  0.00  0.00  0.87  0.00  0.00  0.00  0.28  0.00
  YS02001622YS02001625    1.00   0.13  0.00  0.00  0.87  0.00  0.00  0.00  0.05  0.00
  YS02001625YS02001629    1.00   0.13  0.05  0.00  0.15  0.00  0.67  0.00  0.00  0.00
  YS02001629YS02163301    1.00   0.16  0.01  0.00  0.83  0.00  0.00  0.00  0.00  0.00
  YS02001633YS02163601    1.00   0.00  0.01  0.00  0.99  0.00  0.00  0.00  0.15  0.00
  YS02001641YS02001644    1.00   0.00  0.01  0.00  0.99  0.00  0.00  0.00  0.00  0.00
  YS02001644YS02001647    1.00   0.00  0.18  0.00  0.82  0.00  0.00  0.00  0.00  0.00
  YS02001647YS02001649    1.00   0.00  0.18  0.00  0.53  0.30  0.00  0.00  0.57  0.00
  YS02001649YS02001757    1.00   0.00  0.00  0.00  0.68  0.32  0.00  0.00  0.45  0.00
  YS02001652YS02001649    1.00   0.00  0.00  0.00  0.96  0.04  0.00  0.00  0.76  0.00
  YS02001655YS02001652    1.00   0.00  0.00  0.00  0.17  0.01  0.00  0.82  0.05  0.00
  YS02001658YS02001655    1.00   0.00  0.14  0.00  0.64  0.22  0.00  0.00  0.71  0.00
  YS02001661YS02001658    1.00   0.14  0.00  0.00  0.48  0.38  0.00  0.00  0.72  0.00
  YS02001664YS02001661    1.00   0.13  0.00  0.00  0.77  0.11  0.00  0.00  0.86  0.00
  YS02001745YS02001748    1.00   0.00  0.00  0.00  0.07  0.01  0.00  0.92  0.04  0.00
  YS02001748YS02001751    1.00   0.00  0.00  0.00  0.80  0.20  0.00  0.00  0.77  0.00
  YS02001751YS02001754    1.00   0.00  0.00  0.00  0.15  0.00  0.00  0.85  0.04  0.00
  YS02001754YS02001757    1.00   0.00  0.00  0.00  1.00  0.00  0.00  0.00  0.84  0.00
  YS02001757CaochengTiaoxuchi    1.00   0.00  0.00  0.00  0.96  0.04  0.00  0.00  0.79  0.00
  YS02001759YS02001757    1.00   0.00  0.00  0.00  1.00  0.00  0.00  0.00  0.61  0.00
  YS02001762YS02001759    1.00   0.00  0.00  0.00  1.00  0.00  0.00  0.00  0.05  0.00
  YS02001765YS02001762    1.00   0.00  0.00  0.00  1.00  0.00  0.00  0.00  0.74  0.00
  YS02001767YS02001765    1.00   0.00  0.00  0.00  1.00  0.00  0.00  0.00  0.00  0.00
  YS02001770YS02001767    1.00   0.00  0.00  0.00  1.00  0.00  0.00  0.00  0.00  0.00
  YS02001774YS02001770    1.00   0.00  0.13  0.00  0.70  0.00  0.17  0.00  0.03  0.00
  YS02001779YS02001774    1.00   0.00  0.00  0.00  1.00  0.00  0.00  0.00  0.78  0.00
  YS02001783YS02001784    1.00   0.00  0.19  0.00  0.81  0.00  0.00  0.00  0.56  0.00
  YS02001784YS02001785    1.00   0.00  0.00  0.00  1.00  0.00  0.00  0.00  0.17  0.00
  YS02001786YS02001788    1.00   0.00  0.00  0.00  0.79  0.21  0.00  0.00  0.00  0.00
  YS02001788YS02001790    1.00   0.00  0.00  0.00  0.21  0.79  0.00  0.00  0.81  0.00
  YS02001790YS02001791    1.00   0.00  0.00  0.00  0.01  0.99  0.00  0.00  0.16  0.00
  YS02001791YS02001793    1.00   0.00  0.00  0.00  0.00  1.00  0.00  0.00  0.00  0.00
  YS02001793JiankangQianchi    1.00   0.00  0.00  0.00  0.96  0.04  0.00  0.00  1.00  0.00
  YS02001882YS02001884    1.00   0.15  0.01  0.00  0.84  0.00  0.00  0.00  0.00  0.00
  YS02001884YS02001887    1.00   0.06  0.05  0.00  0.89  0.00  0.00  0.00  0.00  0.00
  YS02001887YS02001890    1.00   0.00  0.00  0.00  0.97  0.00  0.03  0.00  0.00  0.00
  YS02001890YS02001895    1.00   0.00  0.17  0.00  0.83  0.00  0.00  0.00  0.00  0.00
  YS02001895YS02001898    1.00   0.17  0.00  0.00  0.81  0.00  0.02  0.00  0.00  0.00
  YS02001898YS02001901    1.00   0.17  0.00  0.00  0.83  0.00  0.00  0.00  0.01  0.00
  YS02001901YS02001904    1.00   0.17  0.00  0.00  0.83  0.00  0.00  0.00  0.00  0.00
  YS02001904YS02001907    1.00   0.00  0.17  0.00  0.83  0.00  0.00  0.00  0.00  0.00
  YS02001907YS02006553    1.00   0.00  0.02  0.00  0.98  0.00  0.00  0.00  0.00  0.00
  YS02001910YS02001907    1.00   0.00  0.00  0.00  0.97  0.00  0.00  0.03  0.12  0.00
  YS02001915YS02001910    1.00   0.00  0.00  0.00  0.97  0.03  0.00  0.00  0.16  0.00
  YS02001918YS02001915    1.00   0.00  0.01  0.00  0.98  0.02  0.00  0.00  0.76  0.00
  YS02001920YS02001918    1.00   0.00  0.01  0.00  0.99  0.00  0.00  0.00  0.00  0.00
  YS02001923YS02001920    1.00   0.00  0.00  0.00  1.00  0.00  0.00  0.00  0.93  0.00
  YS02001926YS02001923    1.00   0.00  0.07  0.00  0.05  0.00  0.87  0.00  0.00  0.00
  YS02001929YS02001926    1.00   0.00  0.13  0.00  0.87  0.00  0.00  0.00  0.83  0.00
  YS02006553YS02006556    1.00   0.01  0.00  0.00  0.99  0.00  0.00  0.00  0.03  0.00
  YS02006556YS02006558    1.00   0.00  0.00  0.00  1.00  0.00  0.00  0.00  0.00  0.00
  YS02006558YS02006561    1.00   0.18  0.00  0.00  0.05  0.77  0.00  0.00  0.19  0.00
  YS02006561YS02001783    1.00   0.18  0.00  0.00  0.08  0.73  0.00  0.00  0.69  0.00
  YS02163301YS02001633    1.00   0.00  0.16  0.00  0.84  0.00  0.00  0.00  0.00  0.00
  YS02163601YS02164001    1.00   0.00  0.08  0.00  0.92  0.00  0.00  0.00  0.00  0.00
  YS02164001YS02001641    1.00   0.01  0.07  0.00  0.92  0.00  0.00  0.00  0.06  0.00
  
  
  *************************
  Conduit Surcharge Summary
  *************************
  
  ----------------------------------------------------------------------------
                                                           Hours        Hours 
                         --------- Hours Full --------   Above Full   Capacity
  Conduit                Both Ends  Upstream  Dnstream   Normal Flow   Limited
  ----------------------------------------------------------------------------
  WS02003072WS02003073        0.01      0.01      0.01      0.37         0.01
  WS02004404WS02004405        0.01      0.01      0.01      2.27         0.01
  WS02004405WS02004406        0.01      0.01      0.01      0.08         0.01
  WS02006109WS02006110        0.18      0.18      1.31      0.23         0.01
  WS02006110WS02006113        0.01      0.01      1.26      0.01         0.01
  WS02006111WS02006112        0.01      0.01      1.66      0.01         0.01
  WS02006112WS02006115        0.01      0.01      0.12      0.01         0.01
  WS02006228WS02006109        1.23      1.31      1.23      1.86         1.23
  WS02006229WS02006228        1.22      1.23      1.22      1.65         1.22
  WS02006230WS02006229        1.46      1.61      1.46      3.07         1.46
  WS02006231WS02006230        0.19      0.19      0.26      2.44         0.01
  WS02006232WS02006231        0.24      0.24      1.32      0.29         0.01
  WS02006234WS02006232        1.18      1.18      1.32      0.28         0.28
  WS02006235WS02006234        0.41      0.41      1.20      2.36         0.01
  WS02006238WS02006235        1.22      1.22      1.31      0.01         0.01
  WS02006239WS02006238        1.25      1.29      1.25      1.42         1.17
  WS02006240WS02006239        1.21      1.24      1.22      1.40         1.11
  WS02006242WS02006240        1.23      1.23      1.40      1.56         0.01
  WS02006243WS02006242        1.25      1.25      1.34      0.01         0.02
  WS02006245WS02006243        1.22      1.23      1.23      1.19         1.01
  WS02006247WS02006245        1.22      1.26      1.22      1.90         1.21
  WS02006248WS02006247        1.21      1.21      1.24      0.01         0.02
  WS02006249WS02006248        1.20      1.20      1.22      1.85         0.01
  WS02006251WS02006249        1.21      1.23      1.22      1.50         1.18
  WS02006252WS02006251        1.58      1.58      1.62      1.59         0.01
  WS02006256WS02006235        2.35      2.39      6.49      0.89         0.01
  YS02001580YS02001583        0.53      0.53      0.57      0.01         0.01
  YS02001583YS02001586        0.54      0.54      0.65      0.01         0.01
  YS02001586YS02001590        0.65      0.65      0.72      0.01         0.01
  YS02001590YS02001593        0.72      0.72      0.74      0.75         0.01
  YS02001593YS02001596        0.73      0.73      0.83      0.01         0.01
  YS02001596YS02001600        0.88      0.88      0.98      0.01         0.01
  YS02001600YS02001601        1.04      1.04      1.32      0.01         0.01
  YS02001601YS02001602        1.22      1.22      1.36      0.99         0.01
  YS02001602YS02001605        1.17      1.17      1.22      2.21         0.01
  YS02001605YS02001607        1.12      1.17      1.12      1.29         1.12
  YS02001607YS02001610        0.69      0.69      0.71      0.01         0.01
  YS02001610YS02001613        0.68      0.68      0.71      0.01         0.01
  YS02001613YS02001616        0.64      0.64      0.68      0.01         0.01
  YS02001616YS02001619        0.63      0.63      0.64      0.01         0.01
  YS02001619YS02001622        0.63      0.63      0.63      0.74         0.60
  YS02001622YS02001625        0.63      0.63      0.80      0.01         0.01
  YS02001625YS02001629        0.58      0.58      0.80      0.01         0.01
  YS02001629YS02163301        0.79      0.79      0.80      0.23         0.20
  YS02001633YS02163601        0.82      0.82      0.85      0.36         0.36
  YS02001641YS02001644        0.72      0.74      0.72      1.40         0.70
  YS02001644YS02001647        0.50      0.50      0.72      0.04         0.01
  YS02001647YS02001649        0.50      0.50      0.60      0.01         0.01
  YS02001649YS02001757        0.60      0.60      0.65      0.10         0.10
  YS02001652YS02001649        0.45      0.45      0.60      0.01         0.01
  YS02001655YS02001652        0.30      0.30      0.43      0.01         0.01
  YS02001658YS02001655        0.16      0.16      0.30      0.01         0.01
  YS02001661YS02001658        0.01      0.01      0.16      0.01         0.01
  YS02001664YS02001661        0.01      0.01      0.04      0.01         0.01
  YS02001745YS02001748        0.01      0.01      0.08      0.01         0.01
  YS02001748YS02001751        0.14      0.14      0.21      0.01         0.01
  YS02001751YS02001754        0.21      0.21      0.34      0.01         0.01
  YS02001754YS02001757        0.38      0.38      0.65      0.01         0.01
  YS02001757CaochengTiaoxuchi        0.58      0.65      1.20      0.35         0.23
  YS02001759YS02001757        0.56      0.56      0.65      0.01         0.03
  YS02001762YS02001759        0.53      0.53      0.56      0.01         0.02
  YS02001765YS02001762        0.49      0.49      0.53      0.01         0.01
  YS02001767YS02001765        0.46      0.46      0.49      0.01         0.03
  YS02001770YS02001767        0.46      0.46      0.46      0.48         0.35
  YS02001774YS02001770        0.44      0.44      0.51      0.01         0.01
  YS02001779YS02001774        0.34      0.34      0.51      0.01         0.01
  YS02001783YS02001784        0.46      0.48      0.46      0.63         0.46
  YS02001784YS02001785        0.36      0.46      0.36      0.85         0.36
  YS02001786YS02001788        0.01      0.36      0.01      0.72         0.01
  YS02001790YS02001791        0.01      0.01      0.01      0.45         0.01
  YS02001793JiankangQianchi        0.01      0.01      6.40      0.01         0.01
  YS02001882YS02001884        0.43      0.43      0.44      0.01         0.01
  YS02001884YS02001887        0.46      0.46      0.47      0.01         0.01
  YS02001887YS02001890        0.48      0.48      0.49      0.09         0.01
  YS02001890YS02001895        0.42      0.42      0.51      0.01         0.01
  YS02001895YS02001898        0.41      0.41      0.42      0.01         0.01
  YS02001898YS02001901        0.42      0.42      0.46      0.01         0.01
  YS02001901YS02001904        0.45      0.45      0.46      0.01         0.01
  YS02001904YS02001907        0.45      0.45      0.71      0.01         0.01
  YS02001907YS02006553        0.86      0.86      0.92      0.01         0.01
  YS02001910YS02001907        0.51      0.51      0.69      0.01         0.01
  YS02001915YS02001910        0.43      0.43      0.51      0.01         0.01
  YS02001918YS02001915        0.34      0.34      0.43      0.01         0.01
  YS02001920YS02001918        0.34      0.34      0.36      0.01         0.01
  YS02001923YS02001920        0.31      0.31      0.36      0.01         0.01
  YS02001926YS02001923        0.05      0.05      0.09      0.01         0.01
  YS02001929YS02001926        0.01      0.01      0.09      0.01         0.01
  YS02006553YS02006556        0.60      0.60      0.71      0.01         0.01
  YS02006556YS02006558        0.66      0.66      0.73      0.01         0.01
  YS02006558YS02006561        0.38      0.59      0.38      0.80         0.38
  YS02006561YS02001783        0.32      0.32      0.48      0.01         0.01
  YS02163301YS02001633        0.80      0.80      0.83      0.01         0.01
  YS02163601YS02164001        0.75      0.75      0.85      0.08         0.01
  YS02164001YS02001641        0.74      0.75      0.74      0.68         0.57
  
  
  ***************
  Pumping Summary
  ***************
  
  ---------------------------------------------------------------------------------------------------------
                                                  Min       Avg       Max     Total     Power    % Time Off
                        Percent   Number of      Flow      Flow      Flow    Volume     Usage    Pump Curve
  Pump                 Utilized   Start-Ups       LPS       LPS       LPS  10^6 ltr     Kw-hr    Low   High
  ---------------------------------------------------------------------------------------------------------
  CC-R1                   22.95          29      0.00    683.00    683.00     4.515     81.09    0.0   40.8
  CC-R2                   18.57          25      0.00    683.00    683.00     3.652     65.40    0.0   43.6
  CC-S1                   25.01          31      0.00    200.00    200.00     1.441      8.56    0.0    0.0
  CC-S2                   20.38          25      0.00    200.00    200.00     1.174      6.85    0.0    0.0
  JK-R1                    6.31          15      0.00   1000.00   1000.00     1.818     16.26    0.0    0.0
  JK-R2                    4.04          15      0.00   1000.00   1000.00     1.163      8.42    0.0    0.0
  JK-S                    10.45          41      0.00    300.00    300.00     0.903     16.30    0.0    0.0
  

  Analysis begun on:  Mon Dec 30 10:18:16 2024
  Analysis ended on:  Mon Dec 30 10:18:17 2024
  Total elapsed time: 00:00:01