
  EPA STORM WATER MANAGEMENT MODEL - VERSION 5.2 (Build 5.2.4)
  PYSWMM TOOLKIT API - VERSION v1.0 (2023-11-27)
  ------------------------------------------------------------

  WARNING 04: minimum elevation drop used for Conduit WS02004404WS02004405
  WARNING 03: negative offset ignored for Link YS02001904YS02001907
  
  ****************
  Analysis Options
  ****************
  Flow Units ............... LPS
  Process Models:
    Rainfall/Runoff ........ YES
    RDII ................... NO
    Snowmelt ............... NO
    Groundwater ............ NO
    Flow Routing ........... YES
    Ponding Allowed ........ NO
    Water Quality .......... NO
  Infiltration Method ...... HORTON
  Flow Routing Method ...... DYNWAVE
  Surcharge Method ......... EXTRAN
  Starting Date ............ 08/28/2015 08:00:00
  Ending Date .............. 08/28/2015 16:00:00
  Antecedent Dry Days ...... 8.0
  Report Time Step ......... 00:01:00
  Wet Time Step ............ 00:01:00
  Dry Time Step ............ 00:01:00
  Routing Time Step ........ 30.00 sec
  Variable Time Step ....... YES
  Maximum Trials ........... 8
  Number of Threads ........ 4
  Head Tolerance ........... 0.001500 m
  
  
  **************************        Volume         Depth
  Runoff Quantity Continuity     hectare-m            mm
  **************************     ---------       -------
  Total Precipitation ......         2.375        71.587
  Evaporation Loss .........         0.000         0.000
  Infiltration Loss ........         0.101         3.041
  Surface Runoff ...........         2.241        67.565
  Final Storage ............         0.033         0.995
  Continuity Error (%) .....        -0.020
  
  
  **************************        Volume        Volume
  Flow Routing Continuity        hectare-m      10^6 ltr
  **************************     ---------     ---------
  Dry Weather Inflow .......         0.025         0.251
  Wet Weather Inflow .......         2.242        22.418
  Groundwater Inflow .......         0.000         0.000
  RDII Inflow ..............         0.000         0.000
  External Inflow ..........         0.083         0.834
  External Outflow .........         1.694        16.937
  Flooding Loss ............         0.727         7.266
  Evaporation Loss .........         0.000         0.000
  Exfiltration Loss ........         0.000         0.000
  Initial Stored Volume ....         0.243         2.431
  Final Stored Volume ......         0.181         1.814
  Continuity Error (%) .....        -0.321
  
  
  *************************
  Highest Continuity Errors
  *************************
  Node YS02001884 (5.21%)
  Node YS02001583 (-4.58%)
  Node WS02006256 (-2.29%)
  
  
  ***************************
  Time-Step Critical Elements
  ***************************
  Link WS02006252WS02006251 (23.61%)
  Link WS02006238WS02006235 (21.24%)
  Link WS02004404WS02004405 (19.77%)
  Link WS02006235WS02006234 (9.58%)
  Link YS02001791YS02001793 (8.90%)
  
  
  ********************************
  Highest Flow Instability Indexes
  ********************************
  Link WS02006113WS02006111 (34)
  Link WS02006252WS02006251 (24)
  Link WS02006238WS02006235 (23)
  Link WS02006111WS02006112 (22)
  Link WS02006256WS02006235 (21)
  
  
  *********************************
  Most Frequent Nonconverging Nodes
  *********************************
  Node CC-1 (15.36%)
  Node CC-2 (15.36%)
  Node JK-1 (15.36%)
  Node JK-2 (15.36%)
  Node WSC (15.36%)
  
  
  *************************
  Routing Time Step Summary
  *************************
  Minimum Time Step           :     0.01 sec
  Average Time Step           :     2.82 sec
  Maximum Time Step           :     6.49 sec
  % of Time in Steady State   :     0.00
  Average Iterations per Step :     3.57
  % of Steps Not Converging   :    15.36
  Time Step Frequencies       :
     30.000 - 13.228 sec      :     0.00 %
     13.228 -  5.833 sec      :    17.71 %
      5.833 -  2.572 sec      :    27.62 %
      2.572 -  1.134 sec      :    25.59 %
      1.134 -  0.500 sec      :    29.08 %
  
  
  ***************************
  Subcatchment Runoff Summary
  ***************************
  
  ------------------------------------------------------------------------------------------------------------------------------
                            Total      Total      Total      Total     Imperv       Perv      Total       Total     Peak  Runoff
                           Precip      Runon       Evap      Infil     Runoff     Runoff     Runoff      Runoff   Runoff   Coeff
  Subcatchment                 mm         mm         mm         mm         mm         mm         mm    10^6 ltr      LPS
  ------------------------------------------------------------------------------------------------------------------------------
  sub60                     71.59       0.00       0.00       1.83      61.79       6.76      68.56        0.90   589.32   0.958
  sub61                     71.59       0.00       0.00       2.65      58.29       9.52      67.81        1.24   818.09   0.947
  sub62                     71.59       0.00       0.00       1.22      64.57       4.51      69.09        1.89  1157.39   0.965
  sub63                     71.59       0.00       0.00       4.88      49.86      15.88      65.74        1.49   926.24   0.918
  sub64                     71.59       0.00       0.00       2.47      59.64       8.27      67.91        1.63   944.87   0.949
  sub65                     71.59       0.00       0.00       2.14      61.03       7.17      68.20        1.88  1059.50   0.953
  sub66                     71.59       0.00       0.00       6.05      49.75      14.71      64.46        3.01  1403.05   0.901
  sub67                     71.59       0.00       0.00       1.17      64.62       4.56      69.17        1.29   881.49   0.966
  sub68                     71.59       0.00       0.00       2.19      60.38       7.83      68.21        1.88  1186.32   0.953
  sub69                     71.59       0.00       0.00       1.96      60.74       8.78      69.52        2.57  1410.10   0.971
  sub70                     71.59       0.00       0.00       6.54      47.08      17.80      64.88        1.87   789.71   0.906
  sub71                     71.59       0.00       0.00       1.25      64.53       4.48      69.01        1.80  1022.88   0.964
  sub72                     71.59       0.00       0.00       1.11      65.17       3.90      69.07        0.95   498.77   0.965
  
  
  ******************
  Node Depth Summary
  ******************
  
  ---------------------------------------------------------------------------------
                                 Average  Maximum  Maximum  Time of Max    Reported
                                   Depth    Depth      HGL   Occurrence   Max Depth
  Node                 Type       Meters   Meters   Meters  days hr:min      Meters
  ---------------------------------------------------------------------------------
  WS02003060           JUNCTION     0.21     0.38     5.32     0  02:22        0.38
  WS02003066           JUNCTION     0.17     0.30     5.85     0  02:22        0.30
  WS02003067           JUNCTION     0.46     0.70     6.02     0  02:22        0.70
  WS02003069           JUNCTION     0.23     0.43     5.01     0  02:23        0.43
  WS02003072           JUNCTION     0.29     0.50     4.87     0  02:23        0.50
  WS02003073           JUNCTION     0.16     0.30     4.36     0  02:24        0.30
  WS02004401           JUNCTION     0.55     0.85     6.85     0  02:19        0.85
  WS02004402           JUNCTION     0.58     0.88     6.84     0  02:19        0.88
  WS02004403           JUNCTION     0.61     0.89     6.82     0  02:44        0.89
  WS02004404           JUNCTION     0.68     0.96     6.81     0  02:44        0.96
  WS02004405           JUNCTION     0.68     0.96     6.81     0  02:44        0.96
  WS02004406           JUNCTION     0.69     0.96     6.79     0  02:45        0.96
  WS02004407           JUNCTION     0.15     0.30     6.61     0  02:20        0.30
  WS02004409           JUNCTION     0.34     0.67     6.44     0  02:20        0.67
  WS02004410           JUNCTION     0.37     0.68     6.40     0  02:20        0.68
  WS02004411           JUNCTION     0.39     0.69     6.37     0  02:21        0.69
  WS02004412           JUNCTION     0.41     0.70     6.34     0  02:21        0.70
  WS02004413           JUNCTION     0.57     0.86     6.33     0  02:21        0.86
  WS02006109           JUNCTION     0.61     1.45     8.07     0  02:36        1.01
  WS02006110           JUNCTION     0.62     1.84     8.43     0  02:36        1.01
  WS02006111           JUNCTION     0.16     0.29     6.99     0  02:41        0.29
  WS02006112           JUNCTION     0.70     1.06     6.94     0  02:42        1.05
  WS02006113           JUNCTION     0.25     0.46     7.35     0  02:37        0.45
  WS02006115           JUNCTION     0.43     0.75     6.89     0  02:19        0.75
  WS02006116           JUNCTION     0.52     0.83     6.87     0  02:19        0.83
  WS02006228           JUNCTION     0.61     1.41     8.06     0  02:36        1.04
  WS02006229           JUNCTION     0.58     1.28     7.98     0  02:36        1.05
  WS02006230           JUNCTION     0.58     1.39     8.13     0  02:25        1.17
  WS02006231           JUNCTION     0.39     1.10     8.23     0  02:55        0.94
  WS02006232           JUNCTION     0.52     1.60     8.63     0  03:40        1.18
  WS02006234           JUNCTION     0.45     1.93     9.08     0  03:40        1.25
  WS02006235           JUNCTION     0.49     1.88     9.04     0  03:40        1.37
  WS02006238           JUNCTION     0.51     1.91     9.05     0  03:40        1.41
  WS02006239           JUNCTION     0.47     1.83     9.03     0  03:40        1.42
  WS02006240           JUNCTION     0.44     1.70     9.00     0  03:40        1.39
  WS02006242           JUNCTION     0.50     1.55     8.82     0  03:40        1.44
  WS02006243           JUNCTION     0.42     1.39     8.81     0  03:40        1.31
  WS02006245           JUNCTION     0.42     1.31     8.79     0  03:40        1.24
  WS02006247           JUNCTION     0.43     1.26     8.76     0  03:40        1.22
  WS02006248           JUNCTION     0.40     1.10     8.69     0  03:16        1.10
  WS02006249           JUNCTION     0.43     1.09     8.69     0  02:02        1.09
  WS02006251           JUNCTION     0.43     1.40     9.07     0  02:02        1.13
  WS02006252           JUNCTION     0.30     1.50     9.74     0  00:00        0.68
  WS02006256           JUNCTION     1.12     2.35     9.28     0  00:00        2.35
  WSF200               JUNCTION     0.14     0.29     5.52     0  02:22        0.29
  YS02001580           JUNCTION     0.14     1.05     9.59     0  01:52        0.77
  YS02001583           JUNCTION     0.17     1.07     9.56     0  01:52        0.83
  YS02001586           JUNCTION     0.28     1.13     9.30     0  01:52        1.13
  YS02001590           JUNCTION     0.40     1.39     9.25     0  01:52        1.38
  YS02001593           JUNCTION     0.33     1.31     9.17     0  01:52        1.28
  YS02001596           JUNCTION     0.46     1.67     9.09     0  01:52        1.65
  YS02001600           JUNCTION     0.55     1.87     9.00     0  01:52        1.87
  YS02001601           JUNCTION     0.75     2.06     8.90     0  01:51        2.06
  YS02001602           JUNCTION     0.65     1.87     8.77     0  01:52        1.87
  YS02001605           JUNCTION     0.60     1.78     8.68     0  02:16        1.78
  YS02001607           JUNCTION     0.57     1.65     8.49     0  02:25        1.64
  YS02001610           JUNCTION     0.61     1.68     8.48     0  01:52        1.68
  YS02001613           JUNCTION     0.57     1.66     8.50     0  01:57        1.66
  YS02001616           JUNCTION     0.50     1.61     8.52     0  02:01        1.60
  YS02001619           JUNCTION     0.48     1.61     8.54     0  01:57        1.61
  YS02001622           JUNCTION     0.46     1.59     8.49     0  01:57        1.59
  YS02001625           JUNCTION     0.72     1.78     8.38     0  01:55        1.78
  YS02001629           JUNCTION     0.61     1.85     8.40     0  01:57        1.85
  YS02001633           JUNCTION     0.69     2.07     8.52     0  01:57        1.99
  YS02001641           JUNCTION     0.66     1.99     8.43     0  01:57        1.95
  YS02001644           JUNCTION     0.65     1.92     8.35     0  01:57        1.92
  YS02001647           JUNCTION     0.42     1.90     8.51     0  01:57        1.90
  YS02001649           JUNCTION     0.48     2.05     8.44     0  01:57        2.05
  YS02001652           JUNCTION     0.36     2.16     8.76     0  01:57        2.16
  YS02001655           JUNCTION     0.27     2.20     9.05     0  01:58        1.58
  YS02001658           JUNCTION     0.20     2.30     9.44     0  01:58        1.34
  YS02001661           JUNCTION     0.20     1.99     9.39     0  01:59        1.12
  YS02001664           JUNCTION     0.08     0.59     8.51     0  01:58        0.56
  YS02001745           JUNCTION     0.10     0.79     8.31     0  02:01        0.78
  YS02001748           JUNCTION     0.19     2.27     9.35     0  01:58        1.21
  YS02001751           JUNCTION     0.23     2.20     9.08     0  01:58        1.39
  YS02001754           JUNCTION     0.31     2.13     8.74     0  01:58        1.65
  YS02001757           JUNCTION     0.49     2.15     8.41     0  01:58        1.97
  YS02001759           JUNCTION     0.43     2.15     8.52     0  01:58        1.97
  YS02001762           JUNCTION     0.42     2.15     8.55     0  01:58        1.95
  YS02001765           JUNCTION     0.40     2.10     8.55     0  01:58        1.91
  YS02001767           JUNCTION     0.40     2.03     8.52     0  01:58        1.89
  YS02001770           JUNCTION     0.41     1.95     8.44     0  01:58        1.92
  YS02001774           JUNCTION     0.48     2.00     8.42     0  01:58        1.97
  YS02001779           JUNCTION     0.30     1.68     8.37     0  01:56        1.68
  YS02001783           JUNCTION     0.34     1.28     7.42     0  01:55        1.23
  YS02001784           JUNCTION     0.34     1.15     7.21     0  01:55        1.12
  YS02001786           JUNCTION     0.28     0.89     6.92     0  01:55        0.87
  YS02001788           JUNCTION     0.21     0.62     6.60     0  01:59        0.62
  YS02001790           JUNCTION     0.24     0.72     6.37     0  02:04        0.72
  YS02001791           JUNCTION     0.15     0.44     5.91     0  01:57        0.43
  YS02001793           JUNCTION     0.08     0.30     5.13     0  01:59        0.28
  YS02001882           JUNCTION     0.42     1.69     8.40     0  01:55        1.65
  YS02001884           JUNCTION     0.51     1.78     8.39     0  01:55        1.75
  YS02001887           JUNCTION     0.58     1.84     8.37     0  01:57        1.84
  YS02001890           JUNCTION     0.61     1.81     8.32     0  01:55        1.81
  YS02001895           JUNCTION     0.38     1.58     8.32     0  01:55        1.56
  YS02001898           JUNCTION     0.39     1.58     8.32     0  01:55        1.56
  YS02001901           JUNCTION     0.50     1.69     8.30     0  01:55        1.68
  YS02001904           JUNCTION     0.48     1.64     8.27     0  02:02        1.63
  YS02001907           JUNCTION     0.80     1.96     8.25     0  01:55        1.96
  YS02001910           JUNCTION     0.61     1.96     8.46     0  01:56        1.90
  YS02001915           JUNCTION     0.42     1.91     8.62     0  01:56        1.81
  YS02001918           JUNCTION     0.25     1.81     8.88     0  01:56        1.50
  YS02001920           JUNCTION     0.33     2.14     9.15     0  01:56        1.58
  YS02001923           JUNCTION     0.19     2.03     9.29     0  01:56        1.34
  YS02001926           JUNCTION     0.22     1.90     9.35     0  01:56        1.17
  YS02001929           JUNCTION     0.13     1.78     9.47     0  01:56        0.94
  YS02006553           JUNCTION     0.80     1.99     8.27     0  01:57        1.99
  YS02006556           JUNCTION     0.77     1.97     8.28     0  01:57        1.97
  YS02006558           JUNCTION     0.82     2.05     8.32     0  01:57        2.05
  YS02006561           JUNCTION     0.21     0.99     7.65     0  01:55        0.90
  YS02163301           JUNCTION     0.63     1.95     8.46     0  01:57        1.90
  YS02163601           JUNCTION     0.72     2.08     8.48     0  01:57        2.01
  YS02164001           JUNCTION     0.65     2.01     8.47     0  01:57        1.93
  CC-1                 OUTFALL      0.00     0.00     0.00     0  00:00        0.00
  CC-2                 OUTFALL      0.00     0.00     0.00     0  00:00        0.00
  JK-1                 OUTFALL      0.00     0.00     0.00     0  00:00        0.00
  JK-2                 OUTFALL      0.00     0.00     0.00     0  00:00        0.00
  WSC                  OUTFALL      0.16     0.30     0.97     0  02:24        0.30
  CC-storage           STORAGE      0.80     1.66     7.16     0  02:32        1.66
  JK-storage           STORAGE      1.60     4.23     5.03     0  02:15        4.23
  
  
  *******************
  Node Inflow Summary
  *******************
  
  -------------------------------------------------------------------------------------------------
                                  Maximum  Maximum                  Lateral       Total        Flow
                                  Lateral    Total  Time of Max      Inflow      Inflow     Balance
                                   Inflow   Inflow   Occurrence      Volume      Volume       Error
  Node                 Type           LPS      LPS  days hr:min    10^6 ltr    10^6 ltr     Percent
  -------------------------------------------------------------------------------------------------
  WS02003060           JUNCTION     16.53   552.87     0  02:22       0.476        4.36       0.053
  WS02003066           JUNCTION      0.00   536.27     0  02:22           0        3.89       0.035
  WS02003067           JUNCTION      0.00   536.27     0  02:22           0        3.89       0.108
  WS02003069           JUNCTION      0.32   553.10     0  02:23     0.00922        4.37       0.091
  WS02003072           JUNCTION      0.00   553.04     0  02:23           0        4.36       0.159
  WS02003073           JUNCTION      1.82   554.83     0  02:23      0.0524        4.41       0.129
  WS02004401           JUNCTION      0.00   539.16     0  02:44           0        3.99       0.259
  WS02004402           JUNCTION      0.00   538.02     0  02:44           0        3.98       0.263
  WS02004403           JUNCTION      0.00   537.61     0  02:44           0        3.97       0.257
  WS02004404           JUNCTION      0.16   536.98     0  02:44     0.00467        3.97       0.220
  WS02004405           JUNCTION      0.04   537.04     0  02:44      0.0011        3.96       0.313
  WS02004406           JUNCTION      0.00   537.29     0  02:45           0        3.95       0.531
  WS02004407           JUNCTION      0.00   536.70     0  02:45           0        3.93       0.032
  WS02004409           JUNCTION      0.00   536.51     0  02:20           0        3.92       0.071
  WS02004410           JUNCTION      0.00   536.43     0  02:20           0        3.92       0.113
  WS02004411           JUNCTION      0.00   536.40     0  02:21           0        3.92       0.144
  WS02004412           JUNCTION      0.00   536.34     0  02:21           0        3.91       0.192
  WS02004413           JUNCTION      0.00   536.36     0  02:21           0         3.9       0.339
  WS02006109           JUNCTION      1.23   558.09     0  02:25      0.0354        4.04       0.239
  WS02006110           JUNCTION      0.00   559.54     0  03:16           0        4.03       0.176
  WS02006111           JUNCTION      0.00   560.95     0  02:37           0        4.02       0.018
  WS02006112           JUNCTION      0.00   543.31     0  02:41           0        4.02       0.453
  WS02006113           JUNCTION      0.00   572.91     0  02:36           0        4.03       0.055
  WS02006115           JUNCTION      0.00   547.24     0  02:45           0        4.01       0.168
  WS02006116           JUNCTION      0.00   539.84     0  02:43           0           4       0.149
  WS02006228           JUNCTION      0.00   556.68     0  02:26           0        4.01       0.134
  WS02006229           JUNCTION      0.00   556.85     0  02:26           0        4.02       0.119
  WS02006230           JUNCTION     10.28   587.07     0  02:55       0.296        4.02       0.150
  WS02006231           JUNCTION      0.00   573.22     0  02:25           0        3.73      -0.056
  WS02006232           JUNCTION      0.00   572.50     0  02:25           0        3.74       0.256
  WS02006234           JUNCTION      0.00   568.58     0  02:25           0        3.72      -0.399
  WS02006235           JUNCTION      0.00   561.86     0  02:25           0        3.83       0.465
  WS02006238           JUNCTION      0.00   426.28     0  02:45           0        2.94      -0.133
  WS02006239           JUNCTION      0.00   424.25     0  02:45           0        2.87      -0.119
  WS02006240           JUNCTION      0.00   419.46     0  02:20           0        2.83      -0.037
  WS02006242           JUNCTION      0.00   420.36     0  02:45           0        2.82       0.015
  WS02006243           JUNCTION      0.00   421.15     0  02:45           0         2.8      -0.149
  WS02006245           JUNCTION      0.00   421.83     0  02:45           0        2.82       0.466
  WS02006247           JUNCTION      0.00   422.75     0  02:45           0        2.82       0.024
  WS02006248           JUNCTION      0.00   422.26     0  02:45           0        2.82      -0.080
  WS02006249           JUNCTION      0.00   459.02     0  00:00           0        2.99       0.648
  WS02006251           JUNCTION      0.08   407.69     0  02:02     0.00222           3       0.030
  WS02006252           JUNCTION      0.00   400.00     0  00:00           0        2.98      -0.496
  WS02006256           JUNCTION      0.00   300.00     0  00:00           0        1.28      -2.239
  WSF200               JUNCTION      0.00   536.29     0  02:22           0        3.89       0.011
  YS02001580           JUNCTION      0.00    99.49     0  01:52           0     0.00411      -2.406
  YS02001583           JUNCTION      0.00   150.16     0  01:52           0      0.0152      -4.376
  YS02001586           JUNCTION    789.71   789.71     0  02:04        1.87        1.89       0.056
  YS02001590           JUNCTION      0.00   318.05     0  02:22           0        1.42      -0.030
  YS02001593           JUNCTION      0.00   317.97     0  02:05           0        1.42       0.001
  YS02001596           JUNCTION      0.00   318.43     0  02:05           0        1.42      -0.013
  YS02001600           JUNCTION      0.00   318.00     0  02:05           0        1.42       0.005
  YS02001601           JUNCTION   1410.10  1727.75     0  02:03        2.57           4       0.005
  YS02001602           JUNCTION      0.00   514.11     0  01:51           0        2.39       0.014
  YS02001605           JUNCTION      0.00   513.78     0  01:51           0        2.26       0.020
  YS02001607           JUNCTION      0.00   513.27     0  01:51           0        2.26       0.092
  YS02001610           JUNCTION      0.00   782.88     0  02:04           0        2.55       0.081
  YS02001613           JUNCTION      0.00   516.49     0  01:51           0        2.03       0.082
  YS02001616           JUNCTION      0.00   520.17     0  01:51           0        2.03       0.026
  YS02001619           JUNCTION   1403.05  1403.05     0  02:04        3.01        4.74       0.003
  YS02001622           JUNCTION      0.00   967.33     0  02:02           0        4.44      -0.001
  YS02001625           JUNCTION      0.00  1376.90     0  02:05           0        4.68       0.184
  YS02001629           JUNCTION      0.00   934.09     0  01:55           0        3.63       0.018
  YS02001633           JUNCTION   1059.70  1391.40     0  01:55        1.88        5.22       0.063
  YS02001641           JUNCTION      0.00  1391.25     0  01:55           0        4.94       0.055
  YS02001644           JUNCTION    944.91  1819.12     0  01:55        1.63        6.56       0.043
  YS02001647           JUNCTION      0.00  1819.31     0  01:55           0        6.09       0.009
  YS02001649           JUNCTION      0.00  2076.22     0  01:55           0        7.58       0.002
  YS02001652           JUNCTION      0.00   947.86     0  02:02           0         1.5      -0.090
  YS02001655           JUNCTION      0.15   947.67     0  02:02     0.00443         1.5      -0.028
  YS02001658           JUNCTION      0.00   947.93     0  02:02           0        1.49      -0.029
  YS02001661           JUNCTION      0.00   946.22     0  02:02           0        1.49       0.020
  YS02001664           JUNCTION    926.24   926.24     0  02:02        1.49        1.49      -0.008
  YS02001745           JUNCTION    589.32   589.32     0  02:02       0.901       0.901       0.166
  YS02001748           JUNCTION      0.04   601.81     0  01:58      0.0013       0.901      -0.272
  YS02001751           JUNCTION      0.01   595.35     0  02:02    0.000317       0.907       0.099
  YS02001754           JUNCTION      0.26   595.73     0  02:02     0.00749       0.918      -0.161
  YS02001757           JUNCTION      0.00  3535.64     0  02:00           0        11.4       0.047
  YS02001759           JUNCTION    818.13  1448.10     0  02:00        1.25        2.94      -0.011
  YS02001762           JUNCTION      0.00   775.05     0  01:58           0        1.69      -0.011
  YS02001765           JUNCTION      0.00   775.63     0  01:58           0        1.69       0.008
  YS02001767           JUNCTION      0.54   775.87     0  01:58      0.0154        1.69      -0.001
  YS02001770           JUNCTION   1157.54  1157.54     0  02:02         1.9        1.94      -0.018
  YS02001774           JUNCTION      0.00   577.73     0  02:02           0       0.283       0.318
  YS02001779           JUNCTION      0.01   577.62     0  02:02    0.000144       0.239      -0.393
  YS02001783           JUNCTION      0.00  1166.68     0  02:00           0        4.32       0.004
  YS02001784           JUNCTION      1.06  1167.80     0  01:59      0.0305        4.35       0.012
  YS02001786           JUNCTION      0.06  1167.80     0  02:00     0.00162        4.35       0.015
  YS02001788           JUNCTION      0.07  1167.79     0  02:00     0.00204        4.35       0.007
  YS02001790           JUNCTION      0.15  1177.66     0  01:59     0.00446        4.36       0.034
  YS02001791           JUNCTION      0.00  1291.36     0  02:04           0        4.35      -0.035
  YS02001793           JUNCTION      0.00  1248.00     0  02:05           0        4.36       0.007
  YS02001882           JUNCTION      0.00    39.80     0  01:53           0      0.0128       4.864
  YS02001884           JUNCTION      0.00    77.68     0  01:53           0      0.0487       5.491
  YS02001887           JUNCTION    881.94   882.72     0  02:01         1.3        1.33       0.335
  YS02001890           JUNCTION      0.00   882.96     0  02:01           0        1.29       0.387
  YS02001895           JUNCTION      0.00   517.66     0  02:07           0        1.16       0.147
  YS02001898           JUNCTION      0.00   518.13     0  02:03           0        1.16       0.021
  YS02001901           JUNCTION      0.00   517.99     0  02:04           0        1.16       0.282
  YS02001904           JUNCTION      0.00   518.10     0  02:04           0        1.16       0.245
  YS02001907           JUNCTION      0.00  2067.41     0  02:02           0           4       0.441
  YS02001910           JUNCTION      0.00  1531.21     0  02:02           0        2.84       0.253
  YS02001915           JUNCTION   1022.90  1530.67     0  02:02        1.81        2.88       0.052
  YS02001918           JUNCTION      0.00   509.65     0  02:02           0         1.1       0.006
  YS02001920           JUNCTION      2.87   509.47     0  02:02      0.0827        1.08       0.091
  YS02001923           JUNCTION      0.04   505.48     0  02:02     0.00109       0.982      -0.062
  YS02001926           JUNCTION      0.05   524.19     0  01:56      0.0015       0.962      -0.071
  YS02001929           JUNCTION    498.77   498.77     0  02:03        0.95       0.951      -0.069
  YS02006553           JUNCTION      0.00   801.95     0  02:21           0        2.47       0.487
  YS02006556           JUNCTION      0.00   802.25     0  02:21           0        2.48       0.329
  YS02006558           JUNCTION   1187.20  1187.20     0  02:02         1.9        4.35       0.083
  YS02006561           JUNCTION      0.00  1173.66     0  01:55           0        4.32      -0.004
  YS02163301           JUNCTION      0.00   933.80     0  01:55           0        3.62       0.039
  YS02163601           JUNCTION      0.11  1390.78     0  01:55     0.00317        4.93       0.100
  YS02164001           JUNCTION      0.00  1390.58     0  01:55           0        4.93       0.048
  CC-1                 OUTFALL       0.00   683.00     0  00:00           0        5.17       0.000
  CC-2                 OUTFALL       0.00   683.00     0  00:00           0        4.15       0.000
  JK-1                 OUTFALL       0.00  1000.00     0  00:00           0        1.65       0.000
  JK-2                 OUTFALL       0.00  1000.00     0  00:00           0        1.56       0.000
  WSC                  OUTFALL       0.00   554.81     0  02:24           0         4.4       0.000
  CC-storage           STORAGE       0.00  3535.37     0  02:00           0        13.7      -0.236
  JK-storage           STORAGE       0.00  1265.13     0  02:07           0        4.51      -0.386
  
  
  **********************
  Node Surcharge Summary
  **********************
  
  Surcharging occurs when water rises above the top of the highest conduit.
  ---------------------------------------------------------------------
                                               Max. Height   Min. Depth
                                   Hours       Above Crown    Below Rim
  Node                 Type      Surcharged         Meters       Meters
  ---------------------------------------------------------------------
  WS02006109           JUNCTION        1.75          0.632        1.188
  WS02006110           JUNCTION        0.54          0.934        0.916
  WS02006112           JUNCTION        0.55          0.061        1.619
  WS02006228           JUNCTION        1.74          0.581        1.619
  WS02006229           JUNCTION        1.76          0.483        1.967
  WS02006230           JUNCTION        0.57          0.309        1.261
  WS02006231           JUNCTION        0.63          0.394        1.136
  WS02006232           JUNCTION        1.84          0.896        0.584
  WS02006234           JUNCTION        0.93          1.207        0.033
  WS02006235           JUNCTION        1.74          1.170        0.120
  WS02006238           JUNCTION        1.78          1.188        0.242
  WS02006239           JUNCTION        1.69          1.086        0.204
  WS02006240           JUNCTION        1.67          0.994        0.396
  WS02006242           JUNCTION        1.71          0.820        0.000
  WS02006243           JUNCTION        1.65          0.681        0.089
  WS02006245           JUNCTION        1.65          0.599        0.251
  WS02006247           JUNCTION        1.65          0.549        0.211
  WS02006248           JUNCTION        1.63          0.380        0.000
  WS02006249           JUNCTION        1.63          0.390        0.000
  WS02006251           JUNCTION        0.67          0.371        0.809
  WS02006252           JUNCTION        1.89          1.100        0.000
  WS02006256           JUNCTION        6.39          2.050        0.000
  YS02001580           JUNCTION        0.70          0.450        0.000
  YS02001583           JUNCTION        0.71          0.426        0.074
  YS02001586           JUNCTION        0.84          0.510        0.000
  YS02001590           JUNCTION        0.92          0.739        0.011
  YS02001593           JUNCTION        0.92          0.687        0.153
  YS02001596           JUNCTION        1.04          0.942        0.128
  YS02001600           JUNCTION        1.21          1.190        0.000
  YS02001601           JUNCTION        1.53          1.440        0.000
  YS02001602           JUNCTION        1.43          1.270        0.000
  YS02001605           JUNCTION        1.39          1.176        0.004
  YS02001607           JUNCTION        0.90          0.646        0.034
  YS02001610           JUNCTION        0.93          0.680        0.000
  YS02001613           JUNCTION        0.89          0.662        0.038
  YS02001616           JUNCTION        0.85          0.607        0.003
  YS02001619           JUNCTION        0.84          0.610        0.000
  YS02001622           JUNCTION        0.83          0.591        0.029
  YS02001625           JUNCTION        1.03          0.780        0.000
  YS02001629           JUNCTION        0.78          0.470        0.000
  YS02001633           JUNCTION        1.05          1.045        0.015
  YS02001641           JUNCTION        0.98          0.990        0.110
  YS02001644           JUNCTION        0.96          0.920        0.000
  YS02001647           JUNCTION        0.72          0.900        0.000
  YS02001649           JUNCTION        0.85          1.050        0.000
  YS02001652           JUNCTION        0.63          1.130        0.000
  YS02001655           JUNCTION        0.46          1.200        0.000
  YS02001658           JUNCTION        0.25          1.300        0.000
  YS02001661           JUNCTION        0.04          0.917        0.473
  YS02001748           JUNCTION        0.19          1.190        0.000
  YS02001751           JUNCTION        0.33          1.200        0.000
  YS02001754           JUNCTION        0.53          1.084        0.066
  YS02001757           JUNCTION        0.92          1.152        0.058
  YS02001759           JUNCTION        0.82          1.154        0.056
  YS02001762           JUNCTION        0.78          1.146        0.004
  YS02001765           JUNCTION        0.74          1.100        0.000
  YS02001767           JUNCTION        0.70          1.030        0.000
  YS02001770           JUNCTION        0.66          0.920        0.000
  YS02001774           JUNCTION        0.77          0.999        0.051
  YS02001779           JUNCTION        0.53          0.680        0.000
  YS02001783           JUNCTION        0.61          0.479        1.121
  YS02001784           JUNCTION        0.58          0.346        1.144
  YS02001786           JUNCTION        0.47          0.093        1.337
  YS02001882           JUNCTION        0.55          0.687        0.143
  YS02001884           JUNCTION        0.56          0.716        0.154
  YS02001887           JUNCTION        0.59          0.785        0.165
  YS02001890           JUNCTION        0.61          0.760        0.000
  YS02001895           JUNCTION        0.54          0.577        0.173
  YS02001898           JUNCTION        0.53          0.554        0.186
  YS02001901           JUNCTION        0.58          0.687        0.183
  YS02001904           JUNCTION        0.57          0.643        0.207
  YS02001907           JUNCTION        0.84          0.950        0.000
  YS02001910           JUNCTION        0.64          0.955        0.145
  YS02001915           JUNCTION        0.54          0.905        0.095
  YS02001918           JUNCTION        0.46          0.810        0.000
  YS02001920           JUNCTION        0.47          1.140        0.000
  YS02001923           JUNCTION        0.14          0.820        0.000
  YS02001926           JUNCTION        0.17          0.900        0.000
  YS02001929           JUNCTION        0.01          0.780        0.000
  YS02006553           JUNCTION        0.85          0.986        0.204
  YS02006556           JUNCTION        0.74          0.925        0.425
  YS02006558           JUNCTION        0.72          0.948        0.452
  YS02006561           JUNCTION        0.42          0.185        0.965
  YS02163301           JUNCTION        1.03          0.946        0.084
  YS02163601           JUNCTION        1.08          1.080        0.000
  YS02164001           JUNCTION        0.99          1.012        0.088
  
  
  *********************
  Node Flooding Summary
  *********************
  
  Flooding refers to all water that overflows a node, whether it ponds or not.
  --------------------------------------------------------------------------
                                                             Total   Maximum
                                 Maximum   Time of Max       Flood    Ponded
                        Hours       Rate    Occurrence      Volume     Depth
  Node                 Flooded       LPS   days hr:min    10^6 ltr    Meters
  --------------------------------------------------------------------------
  WS02006242              0.01      9.60      0  03:40       0.000     0.000
  WS02006248              0.01      5.12      0  03:26       0.000     0.000
  WS02006249              0.65    112.26      0  02:02       0.159     0.000
  WS02006252              0.01    245.63      0  00:00       0.000     0.000
  WS02006256              1.18    293.19      0  00:00       0.376     0.000
  YS02001580              0.01     86.51      0  01:52       0.000     0.000
  YS02001586              0.56    472.09      0  02:04       0.452     0.000
  YS02001600              0.01      0.98      0  01:52       0.000     0.000
  YS02001601              0.76   1329.91      0  02:03       1.609     0.000
  YS02001602              0.64     61.95      0  02:03       0.129     0.000
  YS02001610              0.56    782.68      0  02:04       0.820     0.000
  YS02001619              0.01      1.45      0  01:57       0.000     0.000
  YS02001625              0.51   1376.73      0  02:05       1.321     0.000
  YS02001629              0.13    209.87      0  02:00       0.057     0.000
  YS02001644              0.22   1039.07      0  02:02       0.466     0.000
  YS02001647              0.01      4.82      0  01:57       0.000     0.000
  YS02001649              0.01     31.49      0  01:57       0.000     0.000
  YS02001652              0.01     39.57      0  01:57       0.000     0.000
  YS02001655              0.01     95.13      0  01:58       0.000     0.000
  YS02001658              0.01    339.69      0  01:58       0.000     0.000
  YS02001748              0.01    356.74      0  01:58       0.000     0.000
  YS02001751              0.01     49.10      0  01:58       0.000     0.000
  YS02001765              0.01      3.73      0  01:58       0.000     0.000
  YS02001767              0.01      2.44      0  01:58       0.000     0.000
  YS02001770              0.01     12.87      0  01:58       0.000     0.000
  YS02001779              0.19    577.31      0  02:02       0.221     0.000
  YS02001890              0.20    367.84      0  02:01       0.130     0.000
  YS02001907              0.40   2067.26      0  02:02       1.522     0.000
  YS02001918              0.01    123.11      0  01:56       0.001     0.000
  YS02001920              0.01     32.27      0  01:56       0.000     0.000
  YS02001923              0.01     44.81      0  01:56       0.000     0.000
  YS02001926              0.01    201.34      0  01:56       0.001     0.000
  YS02001929              0.01    135.37      0  01:56       0.000     0.000
  YS02163601              0.01      3.60      0  01:57       0.000     0.000
  
  
  **********************
  Storage Volume Summary
  **********************
  
  ------------------------------------------------------------------------------------------------
                         Average    Avg   Evap  Exfil     Maximum    Max    Time of Max    Maximum
                          Volume   Pcnt   Pcnt   Pcnt      Volume   Pcnt     Occurrence    Outflow
  Storage Unit           1000 m³   Full   Loss   Loss     1000 m³   Full    days hr:min        LPS
  ------------------------------------------------------------------------------------------------
  CC-storage               2.222   34.7    0.0    0.0       4.620   72.1       0  02:32    1783.53
  JK-storage               0.081   27.7    0.0    0.0       0.212   72.9       0  02:15    2300.00
  
  
  ***********************
  Outfall Loading Summary
  ***********************
  
  -----------------------------------------------------------
                         Flow       Avg       Max       Total
                         Freq      Flow      Flow      Volume
  Outfall Node           Pcnt       LPS       LPS    10^6 ltr
  -----------------------------------------------------------
  CC-1                  49.53    683.00    683.00       5.173
  CC-2                  34.69    683.00    683.00       4.154
  JK-1                  10.33   1000.00   1000.00       1.651
  JK-2                   9.45   1000.00   1000.00       1.555
  WSC                   99.94    215.49    554.81       4.404
  -----------------------------------------------------------
  System                40.79   3581.49   3920.70      16.937
  
  
  ********************
  Link Flow Summary
  ********************
  
  -----------------------------------------------------------------------------
                                 Maximum  Time of Max   Maximum    Max/    Max/
                                  |Flow|   Occurrence   |Veloc|    Full    Full
  Link                 Type          LPS  days hr:min     m/sec    Flow   Depth
  -----------------------------------------------------------------------------
  1                    CONDUIT    554.81     0  02:24      2.83    0.19    0.30
  WS02003060WS02003069 CONDUIT    552.78     0  02:23      1.64    0.22    0.34
  WS02003066WSF200     CONDUIT    536.29     0  02:22      2.85    0.09    0.22
  WS02003067WS02003066 CONDUIT    536.27     0  02:22      1.21    0.17    0.42
  WS02003069WS02003072 CONDUIT    553.04     0  02:23      1.37    0.27    0.39
  WS02003072WS02003073 CONDUIT    553.01     0  02:23      1.43    1.19    0.37
  WS02004401WS02004402 CONDUIT    538.02     0  02:44      0.98    0.65    0.86
  WS02004402WS02004403 CONDUIT    537.61     0  02:44      0.97    0.77    0.88
  WS02004403WS02004404 CONDUIT    536.82     0  02:44      0.92    0.39    0.93
  WS02004404WS02004405 CONDUIT    537.00     0  02:44      1.08    5.26    0.96
  WS02004405WS02004406 CONDUIT    537.29     0  02:45      0.99    1.06    0.96
  WS02004406WS02004407 CONDUIT    536.70     0  02:45      1.04    0.24    0.63
  WS02004407WS02004409 CONDUIT    536.51     0  02:20      1.46    0.19    0.48
  WS02004409WS02004410 CONDUIT    536.43     0  02:20      0.96    0.69    0.67
  WS02004410WS02004411 CONDUIT    536.40     0  02:21      0.93    0.73    0.69
  WS02004411WS02004412 CONDUIT    536.34     0  02:21      0.92    0.76    0.69
  WS02004412WS02004413 CONDUIT    536.36     0  02:21      0.82    0.36    0.78
  WS02004413WS02003067 CONDUIT    536.27     0  02:22      1.11    0.23    0.59
  WS02006109WS02006110 CONDUIT    559.54     0  03:16      1.11    1.08    1.00
  WS02006110WS02006113 CONDUIT    572.91     0  02:36      1.38    0.52    0.78
  WS02006111WS02006112 CONDUIT    543.31     0  02:41      1.81    0.26    0.67
  WS02006112WS02006115 CONDUIT    547.24     0  02:45      0.77    0.32    0.87
  WS02006113WS02006111 CONDUIT    560.95     0  02:37      2.47    0.67    0.46
  WS02006115WS02006116 CONDUIT    539.84     0  02:43      0.97    0.69    0.76
  WS02006116WS02004401 CONDUIT    539.16     0  02:44      0.98    0.74    0.84
  WS02006228WS02006109 CONDUIT    556.86     0  02:25      1.11    2.43    1.00
  WS02006229WS02006228 CONDUIT    556.68     0  02:26      1.14    1.84    1.00
  WS02006230WS02006229 CONDUIT    556.85     0  02:26      1.45   12.39    1.00
  WS02006231WS02006230 CONDUIT    576.79     0  02:55      1.57    8.75    1.00
  WS02006232WS02006231 CONDUIT    573.22     0  02:25      1.50    1.20    1.00
  WS02006234WS02006232 CONDUIT    572.50     0  02:25      1.49    1.16    1.00
  WS02006235WS02006234 CONDUIT    568.58     0  02:25      1.48    6.00    1.00
  WS02006238WS02006235 CONDUIT    426.21     0  02:45      1.45    0.95    1.00
  WS02006239WS02006238 CONDUIT    426.28     0  02:45      1.11    1.36    1.00
  WS02006240WS02006239 CONDUIT    424.25     0  02:45      1.24    1.34    1.00
  WS02006242WS02006240 CONDUIT    419.46     0  02:20      1.13    1.67    1.00
  WS02006243WS02006242 CONDUIT    420.36     0  02:45      1.40    0.90    1.00
  WS02006245WS02006243 CONDUIT    421.15     0  02:45      1.45    1.25    1.00
  WS02006247WS02006245 CONDUIT    421.83     0  02:45      1.43    3.34    1.00
  WS02006248WS02006247 CONDUIT    422.75     0  02:45      1.44    0.92    1.00
  WS02006249WS02006248 CONDUIT    422.26     0  02:45      1.36    2.31    1.00
  WS02006251WS02006249 CONDUIT    459.02     0  00:00      1.99    1.32    1.00
  WS02006252WS02006251 CONDUIT    407.61     0  02:02     24.61    1.50    1.00
  WS02006256WS02006235 CONDUIT    288.91     0  00:00      4.23    3.06    1.00
  WSF200WS02003060     CONDUIT    536.34     0  02:22      2.06    0.12    0.28
  YS02001580YS02001583 CONDUIT     99.49     0  01:52      0.62    0.39    1.00
  YS02001583YS02001586 CONDUIT    150.16     0  01:52      0.62    0.23    1.00
  YS02001586YS02001590 CONDUIT    318.05     0  02:22      1.25    0.56    1.00
  YS02001590YS02001593 CONDUIT    317.97     0  02:05      1.12    2.00    1.00
  YS02001593YS02001596 CONDUIT    318.43     0  02:05      1.75    0.50    1.00
  YS02001596YS02001600 CONDUIT    318.00     0  02:05      1.25    0.62    1.00
  YS02001600YS02001601 CONDUIT    317.99     0  02:05      1.12    0.55    1.00
  YS02001601YS02001602 CONDUIT    514.11     0  01:51      1.82    1.86    1.00
  YS02001602YS02001605 CONDUIT    513.78     0  01:51      1.82   10.87    1.00
  YS02001605YS02001607 CONDUIT    513.27     0  01:51      1.82    2.81    1.00
  YS02001607YS02001610 CONDUIT    514.74     0  01:51      0.66    0.49    1.00
  YS02001610YS02001613 CONDUIT    516.49     0  01:51      0.66    0.60    1.00
  YS02001613YS02001616 CONDUIT    520.17     0  01:51      0.67    0.45    1.00
  YS02001616YS02001619 CONDUIT    504.51     0  01:52      0.67    0.88    1.00
  YS02001619YS02001622 CONDUIT    967.33     0  02:02      1.23    1.43    1.00
  YS02001622YS02001625 CONDUIT    968.19     0  02:02      1.23    0.52    1.00
  YS02001625YS02001629 CONDUIT    934.09     0  01:55      1.19    0.44    1.00
  YS02001629YS02163301 CONDUIT    933.80     0  01:55      1.19    1.15    1.00
  YS02001633YS02163601 CONDUIT   1390.67     0  01:55      1.77    1.46    1.00
  YS02001641YS02001644 CONDUIT   1391.67     0  01:55      1.77    4.50    1.00
  YS02001644YS02001647 CONDUIT   1819.31     0  01:55      2.32    1.07    1.00
  YS02001647YS02001649 CONDUIT   1809.50     0  01:55      2.36    0.96    1.00
  YS02001649YS02001757 CONDUIT   2062.90     0  01:55      2.63    1.25    1.00
  YS02001652YS02001649 CONDUIT    948.97     0  02:02      1.21    0.47    1.00
  YS02001655YS02001652 CONDUIT    947.86     0  02:02      1.34    0.46    1.00
  YS02001658YS02001655 CONDUIT    947.52     0  02:02      1.90    0.40    1.00
  YS02001661YS02001658 CONDUIT    947.93     0  02:02      2.34    0.37    1.00
  YS02001664YS02001661 CONDUIT    946.22     0  02:02      2.34    0.30    0.79
  YS02001745YS02001748 CONDUIT    601.77     0  01:58      2.21    0.23    0.90
  YS02001748YS02001751 CONDUIT    595.34     0  02:02      1.73    0.30    1.00
  YS02001751YS02001754 CONDUIT    595.47     0  02:02      1.46    0.29    1.00
  YS02001754YS02001757 CONDUIT    595.83     0  02:02      0.76    0.24    1.00
  YS02001757CaochengTiaoxuchi CONDUIT   3535.37     0  02:00      4.51    1.53    1.00
  YS02001759YS02001757 CONDUIT   1448.69     0  02:00      1.84    1.03    1.00
  YS02001762YS02001759 CONDUIT    775.14     0  01:58      0.99    0.89    1.00
  YS02001765YS02001762 CONDUIT    775.05     0  01:58      0.99    0.73    1.00
  YS02001767YS02001765 CONDUIT    775.63     0  01:58      0.99    0.98    1.00
  YS02001770YS02001767 CONDUIT    775.33     0  01:58      0.99    3.07    1.00
  YS02001774YS02001770 CONDUIT    577.73     0  02:02      0.74    0.37    1.00
  YS02001779YS02001774 CONDUIT    577.62     0  02:02      0.74    0.29    1.00
  YS02001783YS02001784 CONDUIT   1166.74     0  01:59      2.32    1.61    1.00
  YS02001784YS02001785 CONDUIT   1167.74     0  02:00      2.32    2.72    1.00
  YS02001786YS02001788 CONDUIT   1167.72     0  02:00      2.49    2.25    0.89
  YS02001788YS02001790 CONDUIT   1177.51     0  01:59      2.71    0.87    0.84
  YS02001790YS02001791 CONDUIT   1291.36     0  02:04      3.43    1.41    0.70
  YS02001791YS02001793 CONDUIT   1248.00     0  02:05      6.79    0.54    0.45
  YS02001793JiankangQianchi CONDUIT   1265.13     0  02:07      2.53    0.10    0.65
  YS02001882YS02001884 CONDUIT     39.80     0  01:53      0.14    0.05    1.00
  YS02001884YS02001887 CONDUIT     77.68     0  01:53      0.10    0.10    1.00
  YS02001887YS02001890 CONDUIT    882.96     0  02:01      1.12    1.51    1.00
  YS02001890YS02001895 CONDUIT    517.66     0  02:07      0.66    0.24    1.00
  YS02001895YS02001898 CONDUIT    518.13     0  02:03      0.66    0.90    1.00
  YS02001898YS02001901 CONDUIT    517.99     0  02:04      0.66    0.33    1.00
  YS02001901YS02001904 CONDUIT    518.10     0  02:04      0.66    0.80    1.00
  YS02001904YS02001907 CONDUIT    518.80     0  02:04      0.66    0.18    1.00
  YS02001907YS02006553 CONDUIT    801.95     0  02:21      0.89    0.94    1.00
  YS02001910YS02001907 CONDUIT   1531.02     0  02:02      1.95    0.86    1.00
  YS02001915YS02001910 CONDUIT   1531.21     0  02:02      1.95    0.76    1.00
  YS02001918YS02001915 CONDUIT    509.85     0  02:02      0.65    0.28    1.00
  YS02001920YS02001918 CONDUIT    509.65     0  02:02      0.65    0.49    1.00
  YS02001923YS02001920 CONDUIT    506.60     0  02:02      0.69    0.23    1.00
  YS02001926YS02001923 CONDUIT    505.45     0  02:02      0.96    0.72    1.00
  YS02001929YS02001926 CONDUIT    504.81     0  02:02      1.12    0.24    1.00
  YS02006553YS02006556 CONDUIT    802.25     0  02:21      1.02    0.69    1.00
  YS02006556YS02006558 CONDUIT    802.70     0  02:21      1.02    0.63    1.00
  YS02006558YS02006561 CONDUIT   1173.66     0  01:55      4.15    2.59    1.00
  YS02006561YS02001783 CONDUIT   1166.68     0  02:00      2.32    0.60    1.00
  YS02163301YS02001633 CONDUIT    935.23     0  01:55      1.19    0.88    1.00
  YS02163601YS02164001 CONDUIT   1390.58     0  01:55      1.77    1.23    1.00
  YS02164001YS02001641 CONDUIT   1391.25     0  01:55      1.77    1.90    1.00
  CC-R1                PUMP       683.00     0  00:00              1.00
  CC-R2                PUMP       683.00     0  00:00              1.00
  CC-S1                PUMP       200.00     0  00:00              1.00
  CC-S2                PUMP       200.00     0  00:00              1.00
  JK-R1                PUMP      1000.00     0  00:00              1.00
  JK-R2                PUMP      1000.00     0  00:00              1.00
  JK-S                 PUMP       300.00     0  00:00              1.00
  
  
  ***************************
  Flow Classification Summary
  ***************************
  
  -------------------------------------------------------------------------------------
                      Adjusted    ---------- Fraction of Time in Flow Class ---------- 
                       /Actual         Up    Down  Sub   Sup   Up    Down  Norm  Inlet 
  Conduit               Length    Dry  Dry   Dry   Crit  Crit  Crit  Crit  Ltd   Ctrl  
  -------------------------------------------------------------------------------------
  1                       1.00   0.00  0.00  0.00  0.00  1.00  0.00  0.00  0.42  0.00
  WS02003060WS02003069    1.00   0.00  0.00  0.00  0.98  0.02  0.00  0.00  0.73  0.00
  WS02003066WSF200        1.00   0.12  0.00  0.00  0.00  0.88  0.00  0.00  0.78  0.00
  WS02003067WS02003066    1.00   0.10  0.02  0.00  0.88  0.00  0.00  0.00  0.00  0.00
  WS02003069WS02003072    1.00   0.00  0.00  0.00  0.99  0.01  0.00  0.00  0.75  0.00
  WS02003072WS02003073    1.00   0.00  0.00  0.00  0.00  0.00  0.00  1.00  0.00  0.00
  WS02004401WS02004402    1.00   0.02  0.00  0.00  0.98  0.00  0.00  0.00  0.00  0.00
  WS02004402WS02004403    1.00   0.02  0.00  0.00  0.97  0.00  0.00  0.00  0.00  0.00
  WS02004403WS02004404    1.00   0.00  0.03  0.00  0.97  0.00  0.00  0.00  0.00  0.00
  WS02004404WS02004405    1.00   0.00  0.00  0.00  1.00  0.00  0.00  0.00  0.01  0.00
  WS02004405WS02004406    1.00   0.00  0.00  0.00  1.00  0.00  0.00  0.00  0.00  0.00
  WS02004406WS02004407    1.00   0.00  0.05  0.00  0.95  0.00  0.00  0.00  0.00  0.00
  WS02004407WS02004409    1.00   0.05  0.00  0.00  0.94  0.01  0.00  0.00  0.95  0.00
  WS02004409WS02004410    1.00   0.05  0.00  0.00  0.95  0.00  0.00  0.00  0.03  0.00
  WS02004410WS02004411    1.00   0.05  0.00  0.00  0.95  0.00  0.00  0.00  0.01  0.00
  WS02004411WS02004412    1.00   0.05  0.00  0.00  0.95  0.00  0.00  0.00  0.00  0.00
  WS02004412WS02004413    1.00   0.05  0.00  0.00  0.94  0.00  0.00  0.00  0.01  0.00
  WS02004413WS02003067    1.00   0.06  0.04  0.00  0.00  0.00  0.90  0.00  0.00  0.00
  WS02006109WS02006110    1.00   0.00  0.01  0.00  0.98  0.00  0.01  0.00  0.00  0.00
  WS02006110WS02006113    1.00   0.01  0.01  0.00  0.98  0.00  0.00  0.00  0.00  0.00
  WS02006111WS02006112    1.00   0.02  0.00  0.00  0.98  0.00  0.00  0.00  0.98  0.00
  WS02006112WS02006115    1.00   0.02  0.00  0.00  0.97  0.00  0.00  0.00  0.00  0.00
  WS02006113WS02006111    1.00   0.02  0.00  0.00  0.00  0.98  0.00  0.00  0.10  0.00
  WS02006115WS02006116    1.00   0.02  0.00  0.00  0.97  0.00  0.00  0.01  0.00  0.00
  WS02006116WS02004401    1.00   0.02  0.00  0.00  0.98  0.00  0.00  0.00  0.00  0.00
  WS02006228WS02006109    1.00   0.00  0.00  0.00  1.00  0.00  0.00  0.00  0.00  0.00
  WS02006229WS02006228    1.00   0.00  0.00  0.00  0.99  0.00  0.00  0.01  0.00  0.00
  WS02006230WS02006229    1.00   0.00  0.00  0.00  0.99  0.00  0.00  0.01  0.04  0.00
  WS02006231WS02006230    1.00   0.00  0.00  0.00  0.25  0.00  0.75  0.00  0.00  0.00
  WS02006232WS02006231    1.00   0.00  0.00  0.00  0.99  0.00  0.01  0.00  0.00  0.00
  WS02006234WS02006232    1.00   0.00  0.00  0.00  1.00  0.00  0.00  0.00  0.05  0.00
  WS02006235WS02006234    1.00   0.00  0.00  0.00  0.87  0.00  0.13  0.00  0.00  0.00
  WS02006238WS02006235    1.00   0.00  0.00  0.00  1.00  0.00  0.00  0.00  0.00  0.00
  WS02006239WS02006238    1.00   0.00  0.00  0.00  1.00  0.00  0.00  0.00  0.19  0.00
  WS02006240WS02006239    1.00   0.00  0.00  0.00  0.60  0.00  0.00  0.40  0.04  0.00
  WS02006242WS02006240    1.00   0.00  0.00  0.00  0.99  0.00  0.01  0.00  0.00  0.00
  WS02006243WS02006242    1.00   0.00  0.00  0.00  0.99  0.00  0.00  0.01  0.66  0.00
  WS02006245WS02006243    1.00   0.00  0.00  0.00  0.73  0.00  0.00  0.27  0.00  0.00
  WS02006247WS02006245    1.00   0.00  0.00  0.00  0.97  0.00  0.00  0.03  0.00  0.00
  WS02006248WS02006247    1.00   0.00  0.00  0.00  0.99  0.00  0.00  0.01  0.56  0.00
  WS02006249WS02006248    1.00   0.00  0.00  0.00  0.38  0.00  0.62  0.00  0.00  0.00
  WS02006251WS02006249    1.00   0.00  0.00  0.00  0.99  0.01  0.00  0.00  0.62  0.00
  WS02006252WS02006251    1.00   0.00  0.51  0.00  0.08  0.00  0.40  0.00  0.00  0.00
  WS02006256WS02006235    1.00   0.00  0.00  0.00  0.98  0.02  0.00  0.00  0.00  0.00
  WSF200WS02003060        1.00   0.00  0.12  0.00  0.47  0.40  0.00  0.00  0.61  0.00
  YS02001580YS02001583    1.00   0.23  0.56  0.00  0.21  0.00  0.00  0.00  0.66  0.00
  YS02001583YS02001586    1.00   0.41  0.32  0.00  0.26  0.00  0.00  0.00  0.66  0.00
  YS02001586YS02001590    1.00   0.13  0.00  0.00  0.44  0.04  0.00  0.40  0.36  0.00
  YS02001590YS02001593    1.00   0.13  0.01  0.00  0.13  0.00  0.74  0.00  0.00  0.00
  YS02001593YS02001596    1.00   0.13  0.00  0.00  0.15  0.01  0.00  0.71  0.02  0.00
  YS02001596YS02001600    1.00   0.14  0.00  0.00  0.21  0.01  0.00  0.64  0.04  0.00
  YS02001600YS02001601    1.00   0.13  0.01  0.00  0.86  0.00  0.00  0.00  0.60  0.00
  YS02001601YS02001602    1.00   0.13  0.01  0.00  0.87  0.00  0.00  0.00  0.00  0.00
  YS02001602YS02001605    1.00   0.13  0.00  0.00  0.86  0.00  0.00  0.00  0.00  0.00
  YS02001605YS02001607    1.00   0.14  0.00  0.00  0.86  0.00  0.00  0.00  0.00  0.00
  YS02001607YS02001610    1.00   0.13  0.01  0.00  0.86  0.00  0.00  0.00  0.01  0.00
  YS02001610YS02001613    1.00   0.13  0.00  0.00  0.87  0.00  0.00  0.00  0.00  0.00
  YS02001613YS02001616    1.00   0.13  0.00  0.00  0.87  0.00  0.00  0.00  0.00  0.00
  YS02001616YS02001619    1.00   0.13  0.00  0.00  0.87  0.00  0.00  0.00  0.00  0.00
  YS02001619YS02001622    1.00   0.13  0.00  0.00  0.87  0.00  0.00  0.00  0.28  0.00
  YS02001622YS02001625    1.00   0.13  0.00  0.00  0.87  0.00  0.00  0.00  0.04  0.00
  YS02001625YS02001629    1.00   0.13  0.04  0.00  0.17  0.00  0.65  0.00  0.00  0.00
  YS02001629YS02163301    1.00   0.15  0.01  0.00  0.84  0.00  0.00  0.00  0.00  0.00
  YS02001633YS02163601    1.00   0.00  0.01  0.00  0.99  0.00  0.00  0.00  0.15  0.00
  YS02001641YS02001644    1.00   0.00  0.01  0.00  0.99  0.00  0.00  0.00  0.00  0.00
  YS02001644YS02001647    1.00   0.00  0.17  0.00  0.83  0.00  0.00  0.00  0.00  0.00
  YS02001647YS02001649    1.00   0.00  0.17  0.00  0.55  0.28  0.00  0.00  0.56  0.00
  YS02001649YS02001757    1.00   0.00  0.00  0.00  0.71  0.29  0.00  0.00  0.43  0.00
  YS02001652YS02001649    1.00   0.00  0.00  0.00  0.97  0.03  0.00  0.00  0.73  0.00
  YS02001655YS02001652    1.00   0.00  0.00  0.00  0.19  0.01  0.00  0.79  0.05  0.00
  YS02001658YS02001655    1.00   0.00  0.14  0.00  0.67  0.19  0.00  0.00  0.67  0.00
  YS02001661YS02001658    1.00   0.14  0.00  0.00  0.51  0.35  0.00  0.00  0.68  0.00
  YS02001664YS02001661    1.00   0.13  0.00  0.00  0.76  0.11  0.00  0.00  0.85  0.00
  YS02001745YS02001748    1.00   0.00  0.00  0.00  0.11  0.01  0.00  0.88  0.05  0.00
  YS02001748YS02001751    1.00   0.00  0.00  0.00  0.83  0.17  0.00  0.00  0.76  0.00
  YS02001751YS02001754    1.00   0.00  0.00  0.00  0.17  0.01  0.00  0.83  0.02  0.00
  YS02001754YS02001757    1.00   0.00  0.00  0.00  1.00  0.00  0.00  0.00  0.82  0.00
  YS02001757CaochengTiaoxuchi    1.00   0.00  0.00  0.00  0.95  0.05  0.00  0.00  0.76  0.00
  YS02001759YS02001757    1.00   0.00  0.00  0.00  0.99  0.01  0.00  0.00  0.60  0.00
  YS02001762YS02001759    1.00   0.00  0.00  0.00  1.00  0.00  0.00  0.00  0.04  0.00
  YS02001765YS02001762    1.00   0.00  0.00  0.00  1.00  0.00  0.00  0.00  0.71  0.00
  YS02001767YS02001765    1.00   0.00  0.00  0.00  1.00  0.00  0.00  0.00  0.00  0.00
  YS02001770YS02001767    1.00   0.00  0.00  0.00  1.00  0.00  0.00  0.00  0.00  0.00
  YS02001774YS02001770    1.00   0.00  0.13  0.00  0.70  0.00  0.16  0.00  0.03  0.00
  YS02001779YS02001774    1.00   0.00  0.00  0.00  1.00  0.00  0.00  0.00  0.77  0.00
  YS02001783YS02001784    1.00   0.00  0.18  0.00  0.82  0.00  0.00  0.00  0.55  0.00
  YS02001784YS02001785    1.00   0.00  0.00  0.00  1.00  0.00  0.00  0.00  0.16  0.00
  YS02001786YS02001788    1.00   0.00  0.00  0.00  0.79  0.21  0.00  0.00  0.00  0.00
  YS02001788YS02001790    1.00   0.00  0.00  0.00  0.21  0.79  0.00  0.00  0.80  0.00
  YS02001790YS02001791    1.00   0.00  0.00  0.00  0.01  0.99  0.00  0.00  0.16  0.00
  YS02001791YS02001793    1.00   0.00  0.00  0.00  0.00  1.00  0.00  0.00  0.01  0.00
  YS02001793JiankangQianchi    1.00   0.00  0.00  0.00  0.97  0.03  0.00  0.00  0.96  0.00
  YS02001882YS02001884    1.00   0.15  0.01  0.00  0.84  0.00  0.00  0.00  0.00  0.00
  YS02001884YS02001887    1.00   0.06  0.05  0.00  0.89  0.00  0.00  0.00  0.00  0.00
  YS02001887YS02001890    1.00   0.00  0.00  0.00  0.97  0.00  0.03  0.00  0.00  0.00
  YS02001890YS02001895    1.00   0.00  0.16  0.00  0.84  0.00  0.00  0.00  0.00  0.00
  YS02001895YS02001898    1.00   0.16  0.00  0.00  0.82  0.00  0.02  0.00  0.00  0.00
  YS02001898YS02001901    1.00   0.16  0.00  0.00  0.84  0.00  0.00  0.00  0.01  0.00
  YS02001901YS02001904    1.00   0.16  0.00  0.00  0.84  0.00  0.00  0.00  0.00  0.00
  YS02001904YS02001907    1.00   0.00  0.16  0.00  0.84  0.00  0.00  0.00  0.00  0.00
  YS02001907YS02006553    1.00   0.00  0.02  0.00  0.98  0.00  0.00  0.00  0.00  0.00
  YS02001910YS02001907    1.00   0.00  0.00  0.00  0.97  0.00  0.00  0.03  0.12  0.00
  YS02001915YS02001910    1.00   0.00  0.00  0.00  0.97  0.03  0.00  0.00  0.15  0.00
  YS02001918YS02001915    1.00   0.00  0.01  0.00  0.98  0.02  0.00  0.00  0.74  0.00
  YS02001920YS02001918    1.00   0.00  0.01  0.00  0.99  0.00  0.00  0.00  0.00  0.00
  YS02001923YS02001920    1.00   0.00  0.00  0.00  1.00  0.00  0.00  0.00  0.91  0.00
  YS02001926YS02001923    1.00   0.00  0.07  0.00  0.07  0.00  0.86  0.00  0.00  0.00
  YS02001929YS02001926    1.00   0.00  0.13  0.00  0.87  0.00  0.00  0.00  0.81  0.00
  YS02006553YS02006556    1.00   0.01  0.00  0.00  0.99  0.00  0.00  0.00  0.03  0.00
  YS02006556YS02006558    1.00   0.00  0.00  0.00  1.00  0.00  0.00  0.00  0.00  0.00
  YS02006558YS02006561    1.00   0.17  0.00  0.00  0.06  0.76  0.00  0.00  0.18  0.00
  YS02006561YS02001783    1.00   0.17  0.00  0.00  0.10  0.73  0.00  0.00  0.68  0.00
  YS02163301YS02001633    1.00   0.00  0.15  0.00  0.85  0.00  0.00  0.00  0.00  0.00
  YS02163601YS02164001    1.00   0.00  0.08  0.00  0.92  0.00  0.00  0.00  0.00  0.00
  YS02164001YS02001641    1.00   0.01  0.07  0.00  0.92  0.00  0.00  0.00  0.05  0.00
  
  
  *************************
  Conduit Surcharge Summary
  *************************
  
  ----------------------------------------------------------------------------
                                                           Hours        Hours 
                         --------- Hours Full --------   Above Full   Capacity
  Conduit                Both Ends  Upstream  Dnstream   Normal Flow   Limited
  ----------------------------------------------------------------------------
  WS02003072WS02003073        0.01      0.01      0.01      0.90         0.01
  WS02004404WS02004405        0.01      0.01      0.01      2.35         0.01
  WS02004405WS02004406        0.01      0.01      0.01      0.48         0.01
  WS02006109WS02006110        0.54      0.54      1.83      0.62         0.01
  WS02006110WS02006113        0.01      0.01      1.80      0.01         0.01
  WS02006111WS02006112        0.01      0.01      2.02      0.01         0.01
  WS02006112WS02006115        0.01      0.01      0.55      0.01         0.01
  WS02006228WS02006109        1.75      1.83      1.75      2.09         1.75
  WS02006229WS02006228        1.74      1.76      1.74      2.03         1.73
  WS02006230WS02006229        1.94      2.02      1.94      2.98         1.94
  WS02006231WS02006230        0.57      0.57      0.66      2.59         0.01
  WS02006232WS02006231        0.63      0.63      1.84      0.69         0.01
  WS02006234WS02006232        1.71      1.71      1.84      0.68         0.67
  WS02006235WS02006234        0.93      0.94      1.73      2.43         0.01
  WS02006238WS02006235        1.76      1.76      1.84      0.01         0.01
  WS02006239WS02006238        1.73      1.74      1.78      1.74         1.51
  WS02006240WS02006239        1.66      1.67      1.69      1.72         1.42
  WS02006242WS02006240        1.67      1.67      1.78      1.85         0.01
  WS02006243WS02006242        1.66      1.66      1.71      0.01         0.03
  WS02006245WS02006243        1.65      1.65      1.65      1.15         1.15
  WS02006247WS02006245        1.65      1.66      1.65      2.16         1.63
  WS02006248WS02006247        1.63      1.63      1.65      0.01         0.03
  WS02006249WS02006248        1.63      1.63      1.63      2.11         0.01
  WS02006251WS02006249        1.63      1.64      1.63      1.79         1.58
  WS02006252WS02006251        1.85      1.85      1.89      1.85         0.01
  WS02006256WS02006235        2.43      2.49      6.30      1.22         0.01
  YS02001580YS02001583        0.70      0.70      0.75      0.01         0.01
  YS02001583YS02001586        0.71      0.71      0.84      0.01         0.01
  YS02001586YS02001590        0.85      0.85      0.92      0.01         0.01
  YS02001590YS02001593        0.92      0.92      0.94      0.97         0.01
  YS02001593YS02001596        0.93      0.93      1.04      0.01         0.01
  YS02001596YS02001600        1.09      1.09      1.21      0.01         0.01
  YS02001600YS02001601        1.28      1.28      1.53      0.01         0.01
  YS02001601YS02001602        1.43      1.43      1.56      1.21         0.01
  YS02001602YS02001605        1.39      1.39      1.43      2.33         0.01
  YS02001605YS02001607        1.35      1.39      1.35      1.50         1.35
  YS02001607YS02001610        0.90      0.90      0.93      0.01         0.01
  YS02001610YS02001613        0.89      0.89      0.93      0.01         0.01
  YS02001613YS02001616        0.85      0.85      0.89      0.01         0.01
  YS02001616YS02001619        0.84      0.84      0.85      0.01         0.03
  YS02001619YS02001622        0.83      0.84      0.83      0.93         0.81
  YS02001622YS02001625        0.83      0.83      1.03      0.01         0.01
  YS02001625YS02001629        0.78      0.78      1.03      0.01         0.01
  YS02001629YS02163301        1.02      1.02      1.03      0.18         0.20
  YS02001633YS02163601        1.05      1.05      1.08      0.40         0.40
  YS02001641YS02001644        0.96      0.98      0.96      1.59         0.95
  YS02001644YS02001647        0.73      0.73      0.96      0.04         0.01
  YS02001647YS02001649        0.73      0.73      0.85      0.01         0.01
  YS02001649YS02001757        0.85      0.85      0.92      0.10         0.05
  YS02001652YS02001649        0.66      0.66      0.85      0.01         0.01
  YS02001655YS02001652        0.46      0.46      0.63      0.01         0.01
  YS02001658YS02001655        0.25      0.25      0.46      0.01         0.01
  YS02001661YS02001658        0.04      0.04      0.25      0.01         0.01
  YS02001664YS02001661        0.01      0.01      0.11      0.01         0.01
  YS02001745YS02001748        0.01      0.01      0.19      0.01         0.01
  YS02001748YS02001751        0.23      0.23      0.33      0.01         0.01
  YS02001751YS02001754        0.33      0.33      0.53      0.01         0.01
  YS02001754YS02001757        0.58      0.58      0.92      0.01         0.01
  YS02001757CaochengTiaoxuchi        0.84      0.92      1.50      0.43         0.30
  YS02001759YS02001757        0.82      0.82      0.92      0.03         0.06
  YS02001762YS02001759        0.78      0.78      0.82      0.01         0.02
  YS02001765YS02001762        0.74      0.74      0.78      0.01         0.01
  YS02001767YS02001765        0.70      0.70      0.74      0.01         0.02
  YS02001770YS02001767        0.70      0.70      0.70      0.60         0.49
  YS02001774YS02001770        0.66      0.66      0.77      0.01         0.01
  YS02001779YS02001774        0.53      0.53      0.77      0.01         0.01
  YS02001783YS02001784        0.58      0.61      0.58      0.76         0.58
  YS02001784YS02001785        0.47      0.58      0.47      1.03         0.47
  YS02001786YS02001788        0.01      0.47      0.01      0.88         0.01
  YS02001790YS02001791        0.01      0.01      0.01      0.57         0.01
  YS02001793JiankangQianchi        0.01      0.01      6.67      0.01         0.01
  YS02001882YS02001884        0.55      0.55      0.56      0.01         0.01
  YS02001884YS02001887        0.58      0.58      0.59      0.01         0.01
  YS02001887YS02001890        0.61      0.61      0.62      0.14         0.01
  YS02001890YS02001895        0.54      0.54      0.64      0.01         0.01
  YS02001895YS02001898        0.53      0.53      0.54      0.01         0.01
  YS02001898YS02001901        0.54      0.54      0.58      0.01         0.01
  YS02001901YS02001904        0.57      0.57      0.58      0.01         0.01
  YS02001904YS02001907        0.57      0.57      0.85      0.01         0.01
  YS02001907YS02006553        1.04      1.04      1.11      0.01         0.01
  YS02001910YS02001907        0.64      0.64      0.84      0.01         0.01
  YS02001915YS02001910        0.54      0.54      0.64      0.01         0.01
  YS02001918YS02001915        0.46      0.46      0.54      0.01         0.01
  YS02001920YS02001918        0.45      0.46      0.47      0.01         0.01
  YS02001923YS02001920        0.41      0.41      0.47      0.01         0.01
  YS02001926YS02001923        0.14      0.14      0.17      0.01         0.01
  YS02001929YS02001926        0.01      0.01      0.17      0.01         0.01
  YS02006553YS02006556        0.74      0.74      0.85      0.01         0.01
  YS02006556YS02006558        0.80      0.80      0.87      0.01         0.01
  YS02006558YS02006561        0.49      0.72      0.49      0.98         0.49
  YS02006561YS02001783        0.42      0.42      0.61      0.01         0.01
  YS02163301YS02001633        1.03      1.03      1.07      0.01         0.01
  YS02163601YS02164001        0.99      0.99      1.08      0.09         0.01
  YS02164001YS02001641        0.98      0.99      0.98      0.79         0.71
  
  
  ***************
  Pumping Summary
  ***************
  
  ---------------------------------------------------------------------------------------------------------
                                                  Min       Avg       Max     Total     Power    % Time Off
                        Percent   Number of      Flow      Flow      Flow    Volume     Usage    Pump Curve
  Pump                 Utilized   Start-Ups       LPS       LPS       LPS  10^6 ltr     Kw-hr    Low   High
  ---------------------------------------------------------------------------------------------------------
  CC-R1                   26.43          26      0.00    683.00    683.00     5.199     94.24    0.0   37.0
  CC-R2                   21.30          34      0.00    683.00    683.00     4.189     76.44    0.0   35.2
  CC-S1                   26.21          26      0.00    200.00    200.00     1.509      8.73    0.0    0.0
  CC-S2                   25.71          20      0.00    200.00    200.00     1.481      8.55    0.0    0.0
  JK-R1                    5.74          16      0.00   1000.00   1000.00     1.653     17.23    0.0    0.0
  JK-R2                    5.42          17      0.00   1000.00   1000.00     1.561     12.95    0.0    0.0
  JK-S                    14.77          34      0.00    300.00    300.00     1.276     21.50    0.0    0.0
  

  Analysis begun on:  Mon Dec 30 10:18:21 2024
  Analysis ended on:  Mon Dec 30 10:18:22 2024
  Total elapsed time: 00:00:01