
  EPA STORM WATER MANAGEMENT MODEL - VERSION 5.2 (Build 5.2.4)
  PYSWMM TOOLKIT API - VERSION v1.0 (2023-11-27)
  ------------------------------------------------------------

  WARNING 04: minimum elevation drop used for Conduit WS02004404WS02004405
  WARNING 03: negative offset ignored for Link YS02001904YS02001907
  
  ****************
  Analysis Options
  ****************
  Flow Units ............... LPS
  Process Models:
    Rainfall/Runoff ........ YES
    RDII ................... NO
    Snowmelt ............... NO
    Groundwater ............ NO
    Flow Routing ........... YES
    Ponding Allowed ........ NO
    Water Quality .......... NO
  Infiltration Method ...... HORTON
  Flow Routing Method ...... DYNWAVE
  Surcharge Method ......... EXTRAN
  Starting Date ............ 08/28/2015 08:00:00
  Ending Date .............. 08/28/2015 16:00:00
  Antecedent Dry Days ...... 8.0
  Report Time Step ......... 00:01:00
  Wet Time Step ............ 00:01:00
  Dry Time Step ............ 00:01:00
  Routing Time Step ........ 30.00 sec
  Variable Time Step ....... YES
  Maximum Trials ........... 8
  Number of Threads ........ 4
  Head Tolerance ........... 0.001500 m
  
  
  **************************        Volume         Depth
  Runoff Quantity Continuity     hectare-m            mm
  **************************     ---------       -------
  Total Precipitation ......         2.254        67.962
  Evaporation Loss .........         0.000         0.000
  Infiltration Loss ........         0.100         3.003
  Surface Runoff ...........         2.122        63.982
  Final Storage ............         0.033         0.994
  Continuity Error (%) .....        -0.025
  
  
  **************************        Volume        Volume
  Flow Routing Continuity        hectare-m      10^6 ltr
  **************************     ---------     ---------
  Dry Weather Inflow .......         0.025         0.251
  Wet Weather Inflow .......         2.123        21.232
  Groundwater Inflow .......         0.000         0.000
  RDII Inflow ..............         0.000         0.000
  External Inflow ..........         0.083         0.834
  External Outflow .........         1.603        16.028
  Flooding Loss ............         0.698         6.977
  Evaporation Loss .........         0.000         0.000
  Exfiltration Loss ........         0.000         0.000
  Initial Stored Volume ....         0.243         2.431
  Final Stored Volume ......         0.182         1.821
  Continuity Error (%) .....        -0.320
  
  
  *************************
  Highest Continuity Errors
  *************************
  Node YS02001583 (-5.17%)
  Node YS02001884 (4.97%)
  Node WS02006256 (-2.41%)
  
  
  ***************************
  Time-Step Critical Elements
  ***************************
  Link WS02006252WS02006251 (34.49%)
  Link WS02006238WS02006235 (20.10%)
  Link WS02004404WS02004405 (14.28%)
  Link YS02001791YS02001793 (7.75%)
  Link WS02006235WS02006234 (7.24%)
  
  
  ********************************
  Highest Flow Instability Indexes
  ********************************
  Link WS02006113WS02006111 (32)
  Link WS02006252WS02006251 (18)
  Link WS02006238WS02006235 (18)
  Link WS02006256WS02006235 (18)
  Link WS02006111WS02006112 (17)
  
  
  *********************************
  Most Frequent Nonconverging Nodes
  *********************************
  Node CC-1 (15.37%)
  Node CC-2 (15.37%)
  Node JK-1 (15.37%)
  Node JK-2 (15.37%)
  Node WSC (15.37%)
  
  
  *************************
  Routing Time Step Summary
  *************************
  Minimum Time Step           :     0.01 sec
  Average Time Step           :     2.51 sec
  Maximum Time Step           :     6.43 sec
  % of Time in Steady State   :     0.00
  Average Iterations per Step :     3.44
  % of Steps Not Converging   :    15.37
  Time Step Frequencies       :
     30.000 - 13.228 sec      :     0.00 %
     13.228 -  5.833 sec      :    11.35 %
      5.833 -  2.572 sec      :    29.10 %
      2.572 -  1.134 sec      :    20.74 %
      1.134 -  0.500 sec      :    38.80 %
  
  
  ***************************
  Subcatchment Runoff Summary
  ***************************
  
  ------------------------------------------------------------------------------------------------------------------------------
                            Total      Total      Total      Total     Imperv       Perv      Total       Total     Peak  Runoff
                           Precip      Runon       Evap      Infil     Runoff     Runoff     Runoff      Runoff   Runoff   Coeff
  Subcatchment                 mm         mm         mm         mm         mm         mm         mm    10^6 ltr      LPS
  ------------------------------------------------------------------------------------------------------------------------------
  sub60                     67.96       0.00       0.00       1.81      58.61       6.35      64.96        0.85   624.19   0.956
  sub61                     67.96       0.00       0.00       2.62      55.28       8.94      64.22        1.18   865.91   0.945
  sub62                     67.96       0.00       0.00       1.20      61.24       4.24      65.48        1.79  1218.11   0.963
  sub63                     67.96       0.00       0.00       4.82      47.29      14.89      62.18        1.41   972.78   0.915
  sub64                     67.96       0.00       0.00       2.44      56.56       7.76      64.32        1.55   987.04   0.946
  sub65                     67.96       0.00       0.00       2.11      57.88       6.73      64.60        1.78  1099.44   0.951
  sub66                     67.96       0.00       0.00       5.98      47.18      13.73      60.91        2.84  1430.30   0.896
  sub67                     67.96       0.00       0.00       1.16      61.29       4.28      65.57        1.22   944.45   0.965
  sub68                     67.96       0.00       0.00       2.17      57.26       7.35      64.62        1.78  1251.19   0.951
  sub69                     67.96       0.00       0.00       1.93      57.66       8.27      65.93        2.44  1463.01   0.970
  sub70                     67.96       0.00       0.00       6.45      44.69      16.65      61.35        1.77   802.16   0.903
  sub71                     67.96       0.00       0.00       1.23      61.20       4.20      65.41        1.71  1064.43   0.962
  sub72                     67.96       0.00       0.00       1.10      61.80       3.66      65.47        0.90   514.85   0.963
  
  
  ******************
  Node Depth Summary
  ******************
  
  ---------------------------------------------------------------------------------
                                 Average  Maximum  Maximum  Time of Max    Reported
                                   Depth    Depth      HGL   Occurrence   Max Depth
  Node                 Type       Meters   Meters   Meters  days hr:min      Meters
  ---------------------------------------------------------------------------------
  WS02003060           JUNCTION     0.19     0.38     5.32     0  02:32        0.38
  WS02003066           JUNCTION     0.16     0.30     5.85     0  02:37        0.30
  WS02003067           JUNCTION     0.42     0.70     6.02     0  02:36        0.70
  WS02003069           JUNCTION     0.21     0.43     5.01     0  02:38        0.43
  WS02003072           JUNCTION     0.27     0.50     4.87     0  02:38        0.50
  WS02003073           JUNCTION     0.15     0.30     4.36     0  02:39        0.30
  WS02004401           JUNCTION     0.50     0.85     6.85     0  02:35        0.85
  WS02004402           JUNCTION     0.53     0.88     6.84     0  02:35        0.88
  WS02004403           JUNCTION     0.55     0.89     6.82     0  02:35        0.89
  WS02004404           JUNCTION     0.62     0.96     6.81     0  02:34        0.96
  WS02004405           JUNCTION     0.62     0.96     6.81     0  02:34        0.96
  WS02004406           JUNCTION     0.63     0.96     6.79     0  02:22        0.96
  WS02004407           JUNCTION     0.14     0.30     6.61     0  02:36        0.30
  WS02004409           JUNCTION     0.30     0.67     6.44     0  02:36        0.67
  WS02004410           JUNCTION     0.33     0.68     6.40     0  02:36        0.68
  WS02004411           JUNCTION     0.35     0.69     6.37     0  02:36        0.69
  WS02004412           JUNCTION     0.37     0.70     6.34     0  02:37        0.70
  WS02004413           JUNCTION     0.52     0.86     6.33     0  02:36        0.86
  WS02006109           JUNCTION     0.58     1.14     7.76     0  02:11        0.98
  WS02006110           JUNCTION     0.58     1.17     7.76     0  02:11        0.93
  WS02006111           JUNCTION     0.15     0.29     6.99     0  02:32        0.29
  WS02006112           JUNCTION     0.65     1.07     6.95     0  02:27        1.06
  WS02006113           JUNCTION     0.22     0.46     7.35     0  02:04        0.45
  WS02006115           JUNCTION     0.39     0.75     6.89     0  02:32        0.75
  WS02006116           JUNCTION     0.47     0.83     6.87     0  02:33        0.83
  WS02006228           JUNCTION     0.57     1.18     7.83     0  02:10        1.02
  WS02006229           JUNCTION     0.54     1.22     7.91     0  02:10        1.03
  WS02006230           JUNCTION     0.53     1.39     8.14     0  02:10        1.17
  WS02006231           JUNCTION     0.36     1.10     8.23     0  02:10        0.93
  WS02006232           JUNCTION     0.49     1.27     8.31     0  02:10        1.17
  WS02006234           JUNCTION     0.41     1.96     9.12     0  03:35        1.23
  WS02006235           JUNCTION     0.44     1.45     8.62     0  03:35        1.34
  WS02006238           JUNCTION     0.47     1.48     8.63     0  03:35        1.39
  WS02006239           JUNCTION     0.43     1.47     8.68     0  02:20        1.39
  WS02006240           JUNCTION     0.40     1.43     8.72     0  02:20        1.36
  WS02006242           JUNCTION     0.46     1.50     8.76     0  02:01        1.42
  WS02006243           JUNCTION     0.37     1.48     8.90     0  02:01        1.29
  WS02006245           JUNCTION     0.38     1.33     8.81     0  02:01        1.23
  WS02006247           JUNCTION     0.40     1.24     8.74     0  02:55        1.21
  WS02006248           JUNCTION     0.37     1.10     8.69     0  02:20        1.10
  WS02006249           JUNCTION     0.40     1.09     8.69     0  02:02        1.09
  WS02006251           JUNCTION     0.40     1.41     9.08     0  02:02        1.13
  WS02006252           JUNCTION     0.30     1.50     9.74     0  00:00        0.68
  WS02006256           JUNCTION     0.98     2.35     9.28     0  00:00        2.35
  WSF200               JUNCTION     0.13     0.29     5.52     0  02:32        0.29
  YS02001580           JUNCTION     0.12     1.05     9.59     0  01:53        1.05
  YS02001583           JUNCTION     0.15     1.14     9.64     0  01:53        1.00
  YS02001586           JUNCTION     0.25     1.13     9.30     0  01:53        1.13
  YS02001590           JUNCTION     0.36     1.39     9.25     0  01:56        1.39
  YS02001593           JUNCTION     0.29     1.31     9.18     0  01:53        1.30
  YS02001596           JUNCTION     0.40     1.68     9.10     0  01:53        1.66
  YS02001600           JUNCTION     0.48     1.87     9.00     0  01:53        1.87
  YS02001601           JUNCTION     0.67     2.06     8.90     0  01:52        2.06
  YS02001602           JUNCTION     0.57     1.87     8.77     0  01:53        1.87
  YS02001605           JUNCTION     0.53     1.78     8.68     0  01:53        1.77
  YS02001607           JUNCTION     0.50     1.68     8.53     0  01:53        1.66
  YS02001610           JUNCTION     0.54     1.68     8.48     0  01:53        1.68
  YS02001613           JUNCTION     0.50     1.70     8.54     0  01:56        1.70
  YS02001616           JUNCTION     0.44     1.61     8.52     0  01:53        1.61
  YS02001619           JUNCTION     0.42     1.61     8.54     0  01:53        1.61
  YS02001622           JUNCTION     0.41     1.62     8.52     0  01:53        1.58
  YS02001625           JUNCTION     0.65     1.78     8.38     0  01:53        1.78
  YS02001629           JUNCTION     0.54     1.85     8.40     0  01:53        1.85
  YS02001633           JUNCTION     0.61     2.08     8.53     0  01:56        2.08
  YS02001641           JUNCTION     0.58     1.99     8.42     0  01:57        1.94
  YS02001644           JUNCTION     0.57     1.92     8.35     0  01:57        1.92
  YS02001647           JUNCTION     0.36     1.81     8.42     0  01:58        1.74
  YS02001649           JUNCTION     0.41     2.05     8.44     0  01:58        1.95
  YS02001652           JUNCTION     0.30     2.16     8.76     0  01:58        1.79
  YS02001655           JUNCTION     0.23     2.20     9.05     0  01:58        1.59
  YS02001658           JUNCTION     0.17     2.30     9.44     0  01:58        1.37
  YS02001661           JUNCTION     0.18     2.24     9.64     0  01:59        1.15
  YS02001664           JUNCTION     0.08     0.70     8.63     0  01:59        0.60
  YS02001745           JUNCTION     0.09     0.92     8.44     0  01:59        0.91
  YS02001748           JUNCTION     0.15     2.27     9.35     0  01:58        1.31
  YS02001751           JUNCTION     0.19     2.20     9.08     0  01:58        1.46
  YS02001754           JUNCTION     0.26     2.20     8.81     0  01:58        1.68
  YS02001757           JUNCTION     0.42     2.21     8.47     0  01:58        2.00
  YS02001759           JUNCTION     0.37     2.20     8.57     0  01:58        2.01
  YS02001762           JUNCTION     0.36     2.15     8.55     0  01:58        1.98
  YS02001765           JUNCTION     0.34     2.10     8.55     0  01:58        1.94
  YS02001767           JUNCTION     0.34     2.03     8.52     0  01:58        1.92
  YS02001770           JUNCTION     0.35     1.95     8.44     0  01:57        1.94
  YS02001774           JUNCTION     0.41     2.01     8.43     0  01:57        1.99
  YS02001779           JUNCTION     0.24     1.68     8.37     0  01:57        1.68
  YS02001783           JUNCTION     0.30     1.56     7.70     0  01:56        1.23
  YS02001784           JUNCTION     0.31     1.30     7.37     0  01:56        1.12
  YS02001786           JUNCTION     0.25     1.14     7.17     0  01:56        0.88
  YS02001788           JUNCTION     0.18     0.62     6.60     0  01:59        0.62
  YS02001790           JUNCTION     0.22     0.72     6.37     0  02:02        0.72
  YS02001791           JUNCTION     0.14     0.44     5.91     0  02:03        0.43
  YS02001793           JUNCTION     0.07     0.29     5.12     0  01:59        0.27
  YS02001882           JUNCTION     0.37     1.83     8.55     0  01:55        1.83
  YS02001884           JUNCTION     0.45     1.93     8.55     0  01:55        1.93
  YS02001887           JUNCTION     0.53     2.00     8.54     0  01:56        2.00
  YS02001890           JUNCTION     0.55     1.81     8.32     0  01:55        1.81
  YS02001895           JUNCTION     0.34     1.61     8.36     0  01:55        1.56
  YS02001898           JUNCTION     0.35     1.62     8.35     0  01:55        1.57
  YS02001901           JUNCTION     0.45     1.70     8.31     0  01:56        1.70
  YS02001904           JUNCTION     0.43     1.78     8.41     0  01:56        1.78
  YS02001907           JUNCTION     0.73     1.96     8.25     0  01:56        1.96
  YS02001910           JUNCTION     0.55     2.01     8.52     0  01:57        1.92
  YS02001915           JUNCTION     0.38     1.95     8.67     0  01:57        1.85
  YS02001918           JUNCTION     0.22     1.81     8.88     0  01:56        1.54
  YS02001920           JUNCTION     0.30     2.13     9.13     0  01:57        1.62
  YS02001923           JUNCTION     0.17     2.03     9.29     0  01:57        1.38
  YS02001926           JUNCTION     0.20     1.90     9.35     0  01:57        1.21
  YS02001929           JUNCTION     0.12     1.78     9.47     0  01:57        0.98
  YS02006553           JUNCTION     0.73     2.10     8.38     0  01:56        2.10
  YS02006556           JUNCTION     0.71     2.15     8.46     0  01:56        2.09
  YS02006558           JUNCTION     0.75     2.21     8.48     0  01:56        2.08
  YS02006561           JUNCTION     0.19     1.39     8.05     0  01:56        0.90
  YS02163301           JUNCTION     0.56     1.95     8.47     0  01:56        1.95
  YS02163601           JUNCTION     0.64     2.08     8.48     0  01:57        2.01
  YS02164001           JUNCTION     0.57     2.01     8.47     0  01:57        1.93
  CC-1                 OUTFALL      0.00     0.00     0.00     0  00:00        0.00
  CC-2                 OUTFALL      0.00     0.00     0.00     0  00:00        0.00
  JK-1                 OUTFALL      0.00     0.00     0.00     0  00:00        0.00
  JK-2                 OUTFALL      0.00     0.00     0.00     0  00:00        0.00
  WSC                  OUTFALL      0.15     0.30     0.97     0  02:39        0.30
  CC-storage           STORAGE      0.75     1.60     7.10     0  02:31        1.60
  JK-storage           STORAGE      1.60     4.21     5.01     0  02:20        4.11
  
  
  *******************
  Node Inflow Summary
  *******************
  
  -------------------------------------------------------------------------------------------------
                                  Maximum  Maximum                  Lateral       Total        Flow
                                  Lateral    Total  Time of Max      Inflow      Inflow     Balance
                                   Inflow   Inflow   Occurrence      Volume      Volume       Error
  Node                 Type           LPS      LPS  days hr:min    10^6 ltr    10^6 ltr     Percent
  -------------------------------------------------------------------------------------------------
  WS02003060           JUNCTION     16.53   552.92     0  02:37       0.476        4.23       0.055
  WS02003066           JUNCTION      0.00   536.35     0  02:37           0        3.76       0.038
  WS02003067           JUNCTION      0.00   536.34     0  02:36           0        3.76       0.111
  WS02003069           JUNCTION      0.32   553.22     0  02:38     0.00922        4.24       0.095
  WS02003072           JUNCTION      0.00   553.16     0  02:38           0        4.24       0.166
  WS02003073           JUNCTION      1.82   554.94     0  02:39      0.0524        4.28       0.134
  WS02004401           JUNCTION      0.00   538.68     0  02:22           0        3.87       0.272
  WS02004402           JUNCTION      0.00   538.31     0  02:22           0        3.86       0.275
  WS02004403           JUNCTION      0.00   537.69     0  02:22           0        3.85       0.269
  WS02004404           JUNCTION      0.16   537.22     0  02:22     0.00467        3.84       0.232
  WS02004405           JUNCTION      0.04   537.54     0  02:22      0.0011        3.83       0.322
  WS02004406           JUNCTION      0.00   537.88     0  02:22           0        3.82       0.554
  WS02004407           JUNCTION      0.00   536.83     0  02:36           0         3.8       0.033
  WS02004409           JUNCTION      0.00   536.67     0  02:36           0         3.8       0.073
  WS02004410           JUNCTION      0.00   536.50     0  02:28           0         3.8       0.119
  WS02004411           JUNCTION      0.00   536.44     0  02:36           0        3.79       0.150
  WS02004412           JUNCTION      0.00   536.40     0  02:36           0        3.79       0.199
  WS02004413           JUNCTION      0.00   536.38     0  02:36           0        3.78       0.363
  WS02006109           JUNCTION      1.23   558.51     0  02:11      0.0354        3.92       0.222
  WS02006110           JUNCTION      0.00   559.61     0  03:16           0        3.91       0.200
  WS02006111           JUNCTION      0.00   562.06     0  02:21           0         3.9       0.025
  WS02006112           JUNCTION      0.00   542.11     0  02:27           0         3.9       0.495
  WS02006113           JUNCTION      0.00   567.43     0  03:16           0         3.9       0.053
  WS02006115           JUNCTION      0.00   546.51     0  02:27           0        3.88       0.182
  WS02006116           JUNCTION      0.00   539.32     0  02:22           0        3.87       0.128
  WS02006228           JUNCTION      0.00   556.37     0  02:11           0        3.89       0.114
  WS02006229           JUNCTION      0.00   556.29     0  02:11           0        3.89       0.155
  WS02006230           JUNCTION     10.28   590.61     0  03:35       0.296         3.9       0.161
  WS02006231           JUNCTION      0.00   585.93     0  03:35           0         3.6      -0.052
  WS02006232           JUNCTION      0.00   583.24     0  03:35           0        3.61       0.256
  WS02006234           JUNCTION      0.00   570.76     0  03:35           0         3.6      -0.424
  WS02006235           JUNCTION      0.00   562.06     0  02:10           0        3.71       0.457
  WS02006238           JUNCTION      0.00   424.44     0  02:35           0        2.89      -0.170
  WS02006239           JUNCTION      0.00   422.91     0  02:35           0        2.81      -0.078
  WS02006240           JUNCTION      0.00   419.82     0  02:05           0        2.77      -0.052
  WS02006242           JUNCTION      0.00   420.00     0  03:07           0        2.76       0.017
  WS02006243           JUNCTION      0.00   419.95     0  03:07           0        2.76      -0.111
  WS02006245           JUNCTION      0.00   418.82     0  02:35           0        2.77       0.591
  WS02006247           JUNCTION      0.00   420.04     0  02:35           0        2.77       0.019
  WS02006248           JUNCTION      0.00   421.17     0  02:35           0        2.77      -0.110
  WS02006249           JUNCTION      0.00   459.02     0  00:00           0        2.95       0.720
  WS02006251           JUNCTION      0.08   407.95     0  02:02     0.00222        2.95      -0.012
  WS02006252           JUNCTION      0.00   400.00     0  00:00           0        2.94      -0.499
  WS02006256           JUNCTION      0.00   300.00     0  00:00           0        1.18      -2.353
  WSF200               JUNCTION      0.00   536.36     0  02:37           0        3.76       0.012
  YS02001580           JUNCTION      0.00   131.14     0  01:53           0     0.00441       0.985
  YS02001583           JUNCTION      0.00   176.75     0  01:53           0      0.0154      -4.913
  YS02001586           JUNCTION    802.16   802.20     0  02:04        1.77        1.78       0.064
  YS02001590           JUNCTION      0.00   318.00     0  02:25           0        1.34      -0.037
  YS02001593           JUNCTION      0.00   318.01     0  02:03           0        1.35      -0.001
  YS02001596           JUNCTION      0.00   318.00     0  02:25           0        1.35      -0.006
  YS02001600           JUNCTION      0.00   317.98     0  02:03           0        1.35       0.003
  YS02001601           JUNCTION   1463.01  1780.79     0  02:03        2.44        3.79       0.002
  YS02001602           JUNCTION      0.00   523.63     0  01:53           0        2.28       0.015
  YS02001605           JUNCTION      0.00   523.53     0  01:53           0        2.16       0.023
  YS02001607           JUNCTION      0.00   523.29     0  01:53           0        2.16       0.086
  YS02001610           JUNCTION      0.00   798.82     0  02:04           0        2.44       0.074
  YS02001613           JUNCTION      0.00   536.25     0  01:53           0        1.96       0.082
  YS02001616           JUNCTION      0.00   535.93     0  01:53           0        1.96       0.018
  YS02001619           JUNCTION   1430.30  1430.30     0  02:03        2.84        4.51      -0.002
  YS02001622           JUNCTION      0.00   982.38     0  02:02           0        4.22      -0.002
  YS02001625           JUNCTION      0.00  1373.62     0  02:05           0        4.44       0.186
  YS02001629           JUNCTION      0.00   927.06     0  01:55           0         3.5       0.017
  YS02001633           JUNCTION   1099.64  1391.99     0  01:56        1.79           5       0.068
  YS02001641           JUNCTION      0.00  1402.22     0  01:56           0        4.72       0.054
  YS02001644           JUNCTION    987.08  1827.56     0  01:56        1.55        6.27       0.043
  YS02001647           JUNCTION      0.00  1830.98     0  01:56           0        5.76       0.006
  YS02001649           JUNCTION      0.00  2080.57     0  01:56           0        7.18       0.003
  YS02001652           JUNCTION      0.00  1005.15     0  02:02           0        1.42      -0.080
  YS02001655           JUNCTION      0.15  1003.91     0  02:02     0.00443        1.42      -0.068
  YS02001658           JUNCTION      0.00  1003.48     0  02:02           0        1.41      -0.055
  YS02001661           JUNCTION      0.00  1002.04     0  02:02           0        1.41       0.025
  YS02001664           JUNCTION    972.78   972.78     0  02:02        1.41        1.41      -0.010
  YS02001745           JUNCTION    624.19   624.19     0  02:02       0.854       0.854       0.185
  YS02001748           JUNCTION      0.04   646.93     0  02:01      0.0013       0.855      -0.284
  YS02001751           JUNCTION      0.01   647.13     0  02:01    0.000317       0.862       0.105
  YS02001754           JUNCTION      0.26   646.50     0  02:01     0.00749       0.874      -0.158
  YS02001757           JUNCTION      0.00  3542.12     0  02:00           0        10.8       0.040
  YS02001759           JUNCTION    865.95  1453.86     0  02:01        1.18        2.75      -0.011
  YS02001762           JUNCTION      0.00   807.99     0  01:58           0        1.57      -0.007
  YS02001765           JUNCTION      0.00   808.83     0  01:58           0        1.57       0.000
  YS02001767           JUNCTION      0.54   809.33     0  01:58      0.0154        1.57       0.008
  YS02001770           JUNCTION   1218.26  1218.26     0  02:02         1.8        1.84      -0.021
  YS02001774           JUNCTION      0.00   671.39     0  02:02           0       0.308       0.310
  YS02001779           JUNCTION      0.01   672.03     0  02:02    0.000144       0.265      -0.265
  YS02001783           JUNCTION      0.00  1168.70     0  02:00           0        4.05       0.007
  YS02001784           JUNCTION      1.06  1169.64     0  02:00      0.0305        4.08       0.011
  YS02001786           JUNCTION      0.06  1170.13     0  02:00     0.00162        4.09       0.017
  YS02001788           JUNCTION      0.07  1169.98     0  02:00     0.00204        4.09       0.008
  YS02001790           JUNCTION      0.15  1176.04     0  01:59     0.00446        4.09       0.021
  YS02001791           JUNCTION      0.00  1285.42     0  02:03           0        4.09      -0.024
  YS02001793           JUNCTION      0.00  1248.62     0  02:10           0        4.09       0.006
  YS02001882           JUNCTION      0.00    68.26     0  01:55           0      0.0125       5.118
  YS02001884           JUNCTION      0.00    79.03     0  01:54           0      0.0482       5.230
  YS02001887           JUNCTION    944.90   944.92     0  02:01        1.23        1.27       0.351
  YS02001890           JUNCTION      0.00   945.79     0  02:01           0        1.23       0.405
  YS02001895           JUNCTION      0.00   517.59     0  02:06           0        1.08       0.145
  YS02001898           JUNCTION      0.00   517.49     0  02:06           0        1.08       0.017
  YS02001901           JUNCTION      0.00   517.48     0  02:04           0        1.08       0.303
  YS02001904           JUNCTION      0.00   517.83     0  02:02           0        1.08       0.251
  YS02001907           JUNCTION      0.00  2193.10     0  02:02           0        3.78       0.444
  YS02001910           JUNCTION      0.00  1597.16     0  02:02           0        2.69       0.265
  YS02001915           JUNCTION   1064.45  1596.36     0  02:02        1.71        2.73       0.054
  YS02001918           JUNCTION      0.00   532.27     0  02:02           0        1.05       0.010
  YS02001920           JUNCTION      2.87   531.79     0  02:02      0.0827        1.04       0.095
  YS02001923           JUNCTION      0.04   527.85     0  02:02     0.00109       0.939      -0.043
  YS02001926           JUNCTION      0.05   617.89     0  01:57      0.0015       0.917      -0.018
  YS02001929           JUNCTION    514.85   514.85     0  02:03       0.901       0.903      -0.005
  YS02006553           JUNCTION      0.00   799.26     0  02:20           0        2.32       0.501
  YS02006556           JUNCTION      0.00   799.01     0  02:20           0        2.33       0.331
  YS02006558           JUNCTION   1252.07  1252.07     0  02:02         1.8         4.1       0.088
  YS02006561           JUNCTION      0.00  1180.11     0  01:56           0        4.05      -0.004
  YS02163301           JUNCTION      0.00   926.99     0  01:55           0        3.49       0.040
  YS02163601           JUNCTION      0.11  1391.87     0  01:56     0.00317        4.72       0.101
  YS02164001           JUNCTION      0.00  1391.89     0  01:56           0        4.72       0.043
  CC-1                 OUTFALL       0.00   683.00     0  00:00           0        4.49       0.000
  CC-2                 OUTFALL       0.00   683.00     0  00:00           0        4.23       0.000
  JK-1                 OUTFALL       0.00  1000.00     0  00:00           0        2.06       0.000
  JK-2                 OUTFALL       0.00  1000.00     0  00:00           0       0.974       0.000
  WSC                  OUTFALL       0.00   554.91     0  02:39           0        4.28       0.000
  CC-storage           STORAGE       0.00  3542.14     0  02:00           0          13      -0.240
  JK-storage           STORAGE       0.00  1239.31     0  02:15           0        4.24      -0.402
  
  
  **********************
  Node Surcharge Summary
  **********************
  
  Surcharging occurs when water rises above the top of the highest conduit.
  ---------------------------------------------------------------------
                                               Max. Height   Min. Depth
                                   Hours       Above Crown    Below Rim
  Node                 Type      Surcharged         Meters       Meters
  ---------------------------------------------------------------------
  WS02006109           JUNCTION        1.60          0.319        1.501
  WS02006110           JUNCTION        0.56          0.261        1.589
  WS02006112           JUNCTION        0.54          0.066        1.614
  WS02006228           JUNCTION        1.60          0.346        1.854
  WS02006229           JUNCTION        1.62          0.418        2.032
  WS02006230           JUNCTION        0.56          0.314        1.256
  WS02006231           JUNCTION        0.65          0.395        1.135
  WS02006232           JUNCTION        1.68          0.569        0.911
  WS02006234           JUNCTION        0.87          1.240        0.000
  WS02006235           JUNCTION        1.61          0.743        0.547
  WS02006238           JUNCTION        1.64          0.761        0.669
  WS02006239           JUNCTION        1.57          0.731        0.559
  WS02006240           JUNCTION        1.58          0.721        0.669
  WS02006242           JUNCTION        1.59          0.766        0.054
  WS02006243           JUNCTION        1.57          0.770        0.000
  WS02006245           JUNCTION        1.56          0.618        0.232
  WS02006247           JUNCTION        1.56          0.527        0.233
  WS02006248           JUNCTION        1.56          0.380        0.000
  WS02006249           JUNCTION        1.55          0.390        0.000
  WS02006251           JUNCTION        0.68          0.378        0.802
  WS02006252           JUNCTION        1.72          1.100        0.000
  WS02006256           JUNCTION        7.16          2.050        0.000
  YS02001580           JUNCTION        0.64          0.450        0.000
  YS02001583           JUNCTION        0.65          0.500        0.000
  YS02001586           JUNCTION        0.76          0.510        0.000
  YS02001590           JUNCTION        0.84          0.742        0.008
  YS02001593           JUNCTION        0.84          0.693        0.147
  YS02001596           JUNCTION        0.95          0.947        0.123
  YS02001600           JUNCTION        1.11          1.190        0.000
  YS02001601           JUNCTION        1.45          1.440        0.000
  YS02001602           JUNCTION        1.36          1.270        0.000
  YS02001605           JUNCTION        1.31          1.180        0.000
  YS02001607           JUNCTION        0.81          0.680        0.000
  YS02001610           JUNCTION        0.84          0.680        0.000
  YS02001613           JUNCTION        0.81          0.700        0.000
  YS02001616           JUNCTION        0.76          0.610        0.000
  YS02001619           JUNCTION        0.75          0.610        0.000
  YS02001622           JUNCTION        0.74          0.620        0.000
  YS02001625           JUNCTION        0.93          0.780        0.000
  YS02001629           JUNCTION        0.70          0.470        0.000
  YS02001633           JUNCTION        0.95          1.060        0.000
  YS02001641           JUNCTION        0.89          0.988        0.112
  YS02001644           JUNCTION        0.85          0.920        0.000
  YS02001647           JUNCTION        0.64          0.814        0.086
  YS02001649           JUNCTION        0.77          1.050        0.000
  YS02001652           JUNCTION        0.56          1.130        0.000
  YS02001655           JUNCTION        0.39          1.200        0.000
  YS02001658           JUNCTION        0.22          1.300        0.000
  YS02001661           JUNCTION        0.07          1.169        0.221
  YS02001748           JUNCTION        0.16          1.190        0.000
  YS02001751           JUNCTION        0.29          1.200        0.000
  YS02001754           JUNCTION        0.45          1.150        0.000
  YS02001757           JUNCTION        0.82          1.210        0.000
  YS02001759           JUNCTION        0.72          1.204        0.006
  YS02001762           JUNCTION        0.69          1.150        0.000
  YS02001765           JUNCTION        0.64          1.100        0.000
  YS02001767           JUNCTION        0.60          1.030        0.000
  YS02001770           JUNCTION        0.58          0.920        0.000
  YS02001774           JUNCTION        0.68          1.008        0.042
  YS02001779           JUNCTION        0.45          0.680        0.000
  YS02001783           JUNCTION        0.56          0.757        0.843
  YS02001784           JUNCTION        0.53          0.505        0.985
  YS02001786           JUNCTION        0.43          0.337        1.093
  YS02001882           JUNCTION        0.50          0.830        0.000
  YS02001884           JUNCTION        0.51          0.870        0.000
  YS02001887           JUNCTION        0.55          0.950        0.000
  YS02001890           JUNCTION        0.56          0.760        0.000
  YS02001895           JUNCTION        0.49          0.611        0.139
  YS02001898           JUNCTION        0.48          0.590        0.150
  YS02001901           JUNCTION        0.53          0.698        0.172
  YS02001904           JUNCTION        0.52          0.785        0.065
  YS02001907           JUNCTION        0.77          0.950        0.000
  YS02001910           JUNCTION        0.59          1.008        0.092
  YS02001915           JUNCTION        0.50          0.952        0.048
  YS02001918           JUNCTION        0.42          0.810        0.000
  YS02001920           JUNCTION        0.43          1.127        0.013
  YS02001923           JUNCTION        0.14          0.820        0.000
  YS02001926           JUNCTION        0.16          0.900        0.000
  YS02001929           JUNCTION        0.01          0.780        0.000
  YS02006553           JUNCTION        0.78          1.097        0.093
  YS02006556           JUNCTION        0.68          1.107        0.243
  YS02006558           JUNCTION        0.66          1.112        0.288
  YS02006561           JUNCTION        0.39          0.593        0.557
  YS02163301           JUNCTION        0.93          0.953        0.077
  YS02163601           JUNCTION        0.98          1.080        0.000
  YS02164001           JUNCTION        0.89          1.008        0.092
  
  
  *********************
  Node Flooding Summary
  *********************
  
  Flooding refers to all water that overflows a node, whether it ponds or not.
  --------------------------------------------------------------------------
                                                             Total   Maximum
                                 Maximum   Time of Max       Flood    Ponded
                        Hours       Rate    Occurrence      Volume     Depth
  Node                 Flooded       LPS   days hr:min    10^6 ltr    Meters
  --------------------------------------------------------------------------
  WS02006234              0.01     48.68      0  03:35       0.000     0.000
  WS02006243              0.01      8.99      0  02:01       0.000     0.000
  WS02006248              0.01     10.64      0  02:20       0.000     0.000
  WS02006249              0.66    108.15      0  02:02       0.163     0.000
  WS02006252              0.01    245.63      0  00:00       0.000     0.000
  WS02006256              1.09    293.19      0  00:00       0.358     0.000
  YS02001580              0.01    115.66      0  01:53       0.000     0.000
  YS02001583              0.01    110.77      0  01:53       0.000     0.000
  YS02001586              0.52    484.61      0  02:04       0.427     0.000
  YS02001600              0.01      6.69      0  02:38       0.000     0.000
  YS02001601              0.69   1382.85      0  02:03       1.511     0.000
  YS02001602              0.58     61.98      0  02:15       0.117     0.000
  YS02001605              0.01      3.20      0  01:53       0.000     0.000
  YS02001607              0.01     23.65      0  01:53       0.000     0.000
  YS02001610              0.51    798.40      0  02:04       0.769     0.000
  YS02001613              0.01      0.58      0  01:56       0.000     0.000
  YS02001616              0.01     33.15      0  01:53       0.000     0.000
  YS02001619              0.01     23.85      0  01:53       0.000     0.000
  YS02001622              0.01     91.49      0  01:53       0.000     0.000
  YS02001625              0.47   1373.55      0  02:05       1.200     0.000
  YS02001629              0.13    289.67      0  02:00       0.077     0.000
  YS02001633              0.01      0.78      0  01:56       0.000     0.000
  YS02001644              0.20   1197.53      0  02:02       0.496     0.000
  YS02001649              0.01     31.79      0  01:59       0.000     0.000
  YS02001652              0.01     44.40      0  01:58       0.000     0.000
  YS02001655              0.01     88.85      0  01:58       0.000     0.000
  YS02001658              0.01    448.94      0  01:58       0.000     0.000
  YS02001748              0.01    362.77      0  01:58       0.000     0.000
  YS02001751              0.01     76.59      0  01:58       0.000     0.000
  YS02001754              0.01     31.82      0  01:58       0.000     0.000
  YS02001757              0.01      3.49      0  01:58       0.000     0.000
  YS02001762              0.01      8.96      0  01:58       0.000     0.000
  YS02001765              0.01      6.61      0  01:58       0.000     0.000
  YS02001767              0.01      2.95      0  01:58       0.000     0.000
  YS02001770              0.01     93.43      0  01:57       0.000     0.000
  YS02001779              0.18    671.74      0  02:02       0.246     0.000
  YS02001882              0.01     16.45      0  01:55       0.000     0.000
  YS02001884              0.01     11.36      0  01:55       0.000     0.000
  YS02001887              0.01      2.69      0  01:56       0.000     0.000
  YS02001890              0.19    430.56      0  02:01       0.142     0.000
  YS02001907              0.37   2192.57      0  02:02       1.462     0.000
  YS02001918              0.01    200.50      0  01:57       0.002     0.000
  YS02001923              0.01    491.75      0  01:57       0.003     0.000
  YS02001926              0.01    531.40      0  01:57       0.001     0.000
  YS02001929              0.01    141.08      0  01:57       0.000     0.000
  YS02163601              0.01      3.83      0  01:57       0.000     0.000
  
  
  **********************
  Storage Volume Summary
  **********************
  
  ------------------------------------------------------------------------------------------------
                         Average    Avg   Evap  Exfil     Maximum    Max    Time of Max    Maximum
                          Volume   Pcnt   Pcnt   Pcnt      Volume   Pcnt     Occurrence    Outflow
  Storage Unit           1000 m³   Full   Loss   Loss     1000 m³   Full    days hr:min        LPS
  ------------------------------------------------------------------------------------------------
  CC-storage               2.093   32.6    0.0    0.0       4.462   69.6       0  02:31    1783.53
  JK-storage               0.080   27.5    0.0    0.0       0.212   72.7       0  02:20    2300.00
  
  
  ***********************
  Outfall Loading Summary
  ***********************
  
  -----------------------------------------------------------
                         Flow       Avg       Max       Total
                         Freq      Flow      Flow      Volume
  Outfall Node           Pcnt       LPS       LPS    10^6 ltr
  -----------------------------------------------------------
  CC-1                  35.02    683.00    683.00       4.487
  CC-2                  35.22    683.00    683.00       4.230
  JK-1                  13.52   1000.00   1000.00       2.061
  JK-2                   4.97   1000.00   1000.00       0.974
  WSC                   99.95    181.87    554.91       4.276
  -----------------------------------------------------------
  System                37.74   3547.87   3920.87      16.028
  
  
  ********************
  Link Flow Summary
  ********************
  
  -----------------------------------------------------------------------------
                                 Maximum  Time of Max   Maximum    Max/    Max/
                                  |Flow|   Occurrence   |Veloc|    Full    Full
  Link                 Type          LPS  days hr:min     m/sec    Flow   Depth
  -----------------------------------------------------------------------------
  1                    CONDUIT    554.91     0  02:39      2.83    0.19    0.30
  WS02003060WS02003069 CONDUIT    552.90     0  02:38      1.64    0.22    0.34
  WS02003066WSF200     CONDUIT    536.36     0  02:37      2.85    0.09    0.22
  WS02003067WS02003066 CONDUIT    536.35     0  02:37      1.21    0.17    0.42
  WS02003069WS02003072 CONDUIT    553.16     0  02:38      1.37    0.27    0.39
  WS02003072WS02003073 CONDUIT    553.12     0  02:39      1.44    1.19    0.37
  WS02004401WS02004402 CONDUIT    538.31     0  02:22      1.04    0.65    0.86
  WS02004402WS02004403 CONDUIT    537.69     0  02:22      1.05    0.77    0.88
  WS02004403WS02004404 CONDUIT    537.06     0  02:22      1.05    0.39    0.93
  WS02004404WS02004405 CONDUIT    537.50     0  02:22      1.19    5.27    0.96
  WS02004405WS02004406 CONDUIT    537.88     0  02:22      1.18    1.06    0.96
  WS02004406WS02004407 CONDUIT    536.83     0  02:36      1.04    0.24    0.63
  WS02004407WS02004409 CONDUIT    536.67     0  02:36      1.48    0.19    0.48
  WS02004409WS02004410 CONDUIT    536.50     0  02:28      0.97    0.69    0.67
  WS02004410WS02004411 CONDUIT    536.44     0  02:36      0.93    0.73    0.69
  WS02004411WS02004412 CONDUIT    536.40     0  02:36      0.93    0.76    0.69
  WS02004412WS02004413 CONDUIT    536.38     0  02:36      0.97    0.36    0.78
  WS02004413WS02003067 CONDUIT    536.34     0  02:36      1.11    0.23    0.59
  WS02006109WS02006110 CONDUIT    559.61     0  03:16      1.11    1.08    1.00
  WS02006110WS02006113 CONDUIT    567.43     0  03:16      1.37    0.52    0.78
  WS02006111WS02006112 CONDUIT    542.11     0  02:27      1.85    0.26    0.67
  WS02006112WS02006115 CONDUIT    546.51     0  02:27      0.77    0.32    0.87
  WS02006113WS02006111 CONDUIT    562.06     0  02:21      2.47    0.67    0.46
  WS02006115WS02006116 CONDUIT    539.32     0  02:22      1.11    0.69    0.76
  WS02006116WS02004401 CONDUIT    538.68     0  02:22      1.06    0.74    0.84
  WS02006228WS02006109 CONDUIT    557.28     0  02:11      1.11    2.43    1.00
  WS02006229WS02006228 CONDUIT    556.37     0  02:11      1.11    1.84    1.00
  WS02006230WS02006229 CONDUIT    556.29     0  02:11      1.45   12.38    1.00
  WS02006231WS02006230 CONDUIT    580.33     0  03:35      1.58    8.80    1.00
  WS02006232WS02006231 CONDUIT    585.93     0  03:35      1.53    1.23    1.00
  WS02006234WS02006232 CONDUIT    583.24     0  03:35      1.52    1.18    1.00
  WS02006235WS02006234 CONDUIT    570.76     0  03:35      1.48    6.02    1.00
  WS02006238WS02006235 CONDUIT    425.23     0  02:35      1.45    0.95    1.00
  WS02006239WS02006238 CONDUIT    424.44     0  02:35      1.10    1.36    1.00
  WS02006240WS02006239 CONDUIT    422.91     0  02:35      1.24    1.33    1.00
  WS02006242WS02006240 CONDUIT    419.82     0  02:05      1.13    1.67    1.00
  WS02006243WS02006242 CONDUIT    420.00     0  03:07      1.40    0.90    1.00
  WS02006245WS02006243 CONDUIT    419.95     0  03:07      1.45    1.24    1.00
  WS02006247WS02006245 CONDUIT    418.82     0  02:35      1.43    3.32    1.00
  WS02006248WS02006247 CONDUIT    420.04     0  02:35      1.44    0.91    1.00
  WS02006249WS02006248 CONDUIT    421.17     0  02:35      1.36    2.31    1.00
  WS02006251WS02006249 CONDUIT    459.02     0  00:00      1.99    1.32    1.00
  WS02006252WS02006251 CONDUIT    407.87     0  02:02     21.55    1.50    1.00
  WS02006256WS02006235 CONDUIT    288.91     0  00:00      4.23    3.06    1.00
  WSF200WS02003060     CONDUIT    536.39     0  02:37      2.06    0.12    0.28
  YS02001580YS02001583 CONDUIT    131.14     0  01:53      0.70    0.51    1.00
  YS02001583YS02001586 CONDUIT    163.44     0  01:53      0.71    0.25    1.00
  YS02001586YS02001590 CONDUIT    318.00     0  02:25      1.25    0.56    1.00
  YS02001590YS02001593 CONDUIT    318.01     0  02:03      1.12    2.00    1.00
  YS02001593YS02001596 CONDUIT    318.00     0  02:25      1.75    0.50    1.00
  YS02001596YS02001600 CONDUIT    317.98     0  02:03      1.24    0.62    1.00
  YS02001600YS02001601 CONDUIT    317.93     0  02:12      1.12    0.55    1.00
  YS02001601YS02001602 CONDUIT    523.63     0  01:53      1.85    1.89    1.00
  YS02001602YS02001605 CONDUIT    523.53     0  01:53      1.85   11.08    1.00
  YS02001605YS02001607 CONDUIT    523.29     0  01:53      1.85    2.87    1.00
  YS02001607YS02001610 CONDUIT    531.56     0  01:53      0.68    0.51    1.00
  YS02001610YS02001613 CONDUIT    536.25     0  01:53      0.68    0.62    1.00
  YS02001613YS02001616 CONDUIT    535.93     0  01:53      0.69    0.46    1.00
  YS02001616YS02001619 CONDUIT    493.40     0  01:53      0.67    0.86    1.00
  YS02001619YS02001622 CONDUIT    982.38     0  02:02      1.25    1.45    1.00
  YS02001622YS02001625 CONDUIT    983.32     0  02:02      1.25    0.52    1.00
  YS02001625YS02001629 CONDUIT    927.06     0  01:55      1.19    0.44    1.00
  YS02001629YS02163301 CONDUIT    926.99     0  01:55      1.18    1.14    1.00
  YS02001633YS02163601 CONDUIT   1391.76     0  01:56      1.77    1.46    1.00
  YS02001641YS02001644 CONDUIT   1409.81     0  01:56      1.80    4.56    1.00
  YS02001644YS02001647 CONDUIT   1830.98     0  01:56      2.34    1.08    1.00
  YS02001647YS02001649 CONDUIT   1834.36     0  01:56      2.36    0.97    1.00
  YS02001649YS02001757 CONDUIT   2074.71     0  01:56      2.64    1.26    1.00
  YS02001652YS02001649 CONDUIT   1004.52     0  02:02      1.28    0.50    1.00
  YS02001655YS02001652 CONDUIT   1005.15     0  02:02      1.34    0.49    1.00
  YS02001658YS02001655 CONDUIT   1003.76     0  02:02      1.93    0.43    1.00
  YS02001661YS02001658 CONDUIT   1003.48     0  02:02      2.36    0.39    1.00
  YS02001664YS02001661 CONDUIT   1002.04     0  02:02      2.38    0.31    0.85
  YS02001745YS02001748 CONDUIT    646.88     0  02:01      2.24    0.25    0.96
  YS02001748YS02001751 CONDUIT    647.12     0  02:01      1.76    0.33    1.00
  YS02001751YS02001754 CONDUIT    646.24     0  02:01      1.45    0.31    1.00
  YS02001754YS02001757 CONDUIT    647.32     0  02:01      0.82    0.26    1.00
  YS02001757CaochengTiaoxuchi CONDUIT   3542.14     0  02:00      4.52    1.53    1.00
  YS02001759YS02001757 CONDUIT   1454.06     0  02:00      1.85    1.03    1.00
  YS02001762YS02001759 CONDUIT    807.86     0  01:58      1.03    0.93    1.00
  YS02001765YS02001762 CONDUIT    807.99     0  01:58      1.03    0.76    1.00
  YS02001767YS02001765 CONDUIT    808.83     0  01:58      1.03    1.02    1.00
  YS02001770YS02001767 CONDUIT    808.79     0  01:58      1.03    3.20    1.00
  YS02001774YS02001770 CONDUIT    671.39     0  02:02      0.85    0.43    1.00
  YS02001779YS02001774 CONDUIT    672.02     0  02:02      0.86    0.34    1.00
  YS02001783YS02001784 CONDUIT   1168.58     0  02:00      2.32    1.61    1.00
  YS02001784YS02001785 CONDUIT   1170.07     0  02:00      2.33    2.72    1.00
  YS02001786YS02001788 CONDUIT   1169.91     0  02:00      2.49    2.25    0.89
  YS02001788YS02001790 CONDUIT   1175.88     0  01:59      2.71    0.87    0.84
  YS02001790YS02001791 CONDUIT   1285.42     0  02:03      3.43    1.40    0.70
  YS02001791YS02001793 CONDUIT   1248.62     0  02:10      6.75    0.54    0.44
  YS02001793JiankangQianchi CONDUIT   1239.31     0  02:15      2.49    0.10    0.65
  YS02001882YS02001884 CONDUIT     68.26     0  01:55      0.13    0.08    1.00
  YS02001884YS02001887 CONDUIT     79.03     0  01:54      0.10    0.11    1.00
  YS02001887YS02001890 CONDUIT    945.79     0  02:01      1.20    1.62    1.00
  YS02001890YS02001895 CONDUIT    517.59     0  02:06      0.66    0.24    1.00
  YS02001895YS02001898 CONDUIT    517.49     0  02:06      0.66    0.90    1.00
  YS02001898YS02001901 CONDUIT    517.48     0  02:04      0.66    0.33    1.00
  YS02001901YS02001904 CONDUIT    517.83     0  02:02      0.66    0.80    1.00
  YS02001904YS02001907 CONDUIT    517.86     0  02:01      0.66    0.18    1.00
  YS02001907YS02006553 CONDUIT    799.26     0  02:20      0.89    0.94    1.00
  YS02001910YS02001907 CONDUIT   1596.76     0  02:02      2.03    0.90    1.00
  YS02001915YS02001910 CONDUIT   1597.16     0  02:02      2.03    0.79    1.00
  YS02001918YS02001915 CONDUIT    532.50     0  02:02      0.68    0.29    1.00
  YS02001920YS02001918 CONDUIT    532.27     0  02:02      0.68    0.51    1.00
  YS02001923YS02001920 CONDUIT    528.92     0  02:02      0.69    0.24    1.00
  YS02001926YS02001923 CONDUIT    527.81     0  02:02      0.96    0.75    1.00
  YS02001929YS02001926 CONDUIT    527.26     0  02:02      1.13    0.25    1.00
  YS02006553YS02006556 CONDUIT    799.01     0  02:20      1.02    0.68    1.00
  YS02006556YS02006558 CONDUIT    800.82     0  02:20      1.02    0.63    1.00
  YS02006558YS02006561 CONDUIT   1180.11     0  01:56      4.17    2.61    1.00
  YS02006561YS02001783 CONDUIT   1168.70     0  02:00      2.33    0.61    1.00
  YS02163301YS02001633 CONDUIT    927.02     0  01:55      1.18    0.87    1.00
  YS02163601YS02164001 CONDUIT   1391.89     0  01:56      1.77    1.23    1.00
  YS02164001YS02001641 CONDUIT   1402.22     0  01:56      1.79    1.91    1.00
  CC-R1                PUMP       683.00     0  00:00              1.00
  CC-R2                PUMP       683.00     0  00:00              1.00
  CC-S1                PUMP       200.00     0  00:00              1.00
  CC-S2                PUMP       200.00     0  00:00              1.00
  JK-R1                PUMP      1000.00     0  00:00              1.00
  JK-R2                PUMP      1000.00     0  00:00              1.00
  JK-S                 PUMP       300.00     0  00:00              1.00
  
  
  ***************************
  Flow Classification Summary
  ***************************
  
  -------------------------------------------------------------------------------------
                      Adjusted    ---------- Fraction of Time in Flow Class ---------- 
                       /Actual         Up    Down  Sub   Sup   Up    Down  Norm  Inlet 
  Conduit               Length    Dry  Dry   Dry   Crit  Crit  Crit  Crit  Ltd   Ctrl  
  -------------------------------------------------------------------------------------
  1                       1.00   0.00  0.00  0.00  0.00  1.00  0.00  0.00  0.35  0.00
  WS02003060WS02003069    1.00   0.00  0.00  0.00  0.98  0.02  0.00  0.00  0.76  0.00
  WS02003066WSF200        1.00   0.06  0.00  0.00  0.00  0.94  0.00  0.00  0.85  0.00
  WS02003067WS02003066    1.00   0.05  0.00  0.00  0.94  0.00  0.00  0.00  0.00  0.00
  WS02003069WS02003072    1.00   0.00  0.00  0.00  0.99  0.01  0.00  0.00  0.77  0.00
  WS02003072WS02003073    1.00   0.00  0.00  0.00  0.00  0.00  0.00  1.00  0.00  0.00
  WS02004401WS02004402    1.00   0.02  0.00  0.00  0.98  0.00  0.00  0.00  0.00  0.00
  WS02004402WS02004403    1.00   0.02  0.00  0.00  0.97  0.00  0.00  0.00  0.00  0.00
  WS02004403WS02004404    1.00   0.00  0.03  0.00  0.97  0.00  0.00  0.00  0.00  0.00
  WS02004404WS02004405    1.00   0.00  0.00  0.00  1.00  0.00  0.00  0.00  0.01  0.00
  WS02004405WS02004406    1.00   0.00  0.00  0.00  1.00  0.00  0.00  0.00  0.00  0.00
  WS02004406WS02004407    1.00   0.00  0.04  0.00  0.96  0.00  0.00  0.00  0.00  0.00
  WS02004407WS02004409    1.00   0.04  0.00  0.00  0.95  0.01  0.00  0.00  0.96  0.00
  WS02004409WS02004410    1.00   0.04  0.00  0.00  0.96  0.00  0.00  0.00  0.00  0.00
  WS02004410WS02004411    1.00   0.04  0.00  0.00  0.96  0.00  0.00  0.00  0.00  0.00
  WS02004411WS02004412    1.00   0.04  0.00  0.00  0.96  0.00  0.00  0.00  0.00  0.00
  WS02004412WS02004413    1.00   0.04  0.00  0.00  0.95  0.00  0.00  0.00  0.00  0.00
  WS02004413WS02003067    1.00   0.04  0.01  0.00  0.00  0.00  0.95  0.00  0.00  0.00
  WS02006109WS02006110    1.00   0.00  0.01  0.00  0.98  0.00  0.01  0.00  0.00  0.00
  WS02006110WS02006113    1.00   0.01  0.01  0.00  0.98  0.00  0.00  0.00  0.00  0.00
  WS02006111WS02006112    1.00   0.02  0.00  0.00  0.98  0.00  0.00  0.00  0.98  0.00
  WS02006112WS02006115    1.00   0.02  0.00  0.00  0.97  0.00  0.00  0.00  0.00  0.00
  WS02006113WS02006111    1.00   0.02  0.00  0.00  0.00  0.98  0.00  0.00  0.10  0.00
  WS02006115WS02006116    1.00   0.02  0.00  0.00  0.97  0.00  0.00  0.01  0.00  0.00
  WS02006116WS02004401    1.00   0.02  0.00  0.00  0.98  0.00  0.00  0.00  0.00  0.00
  WS02006228WS02006109    1.00   0.00  0.00  0.00  1.00  0.00  0.00  0.00  0.00  0.00
  WS02006229WS02006228    1.00   0.00  0.00  0.00  0.99  0.00  0.00  0.01  0.00  0.00
  WS02006230WS02006229    1.00   0.00  0.00  0.00  0.99  0.00  0.00  0.01  0.04  0.00
  WS02006231WS02006230    1.00   0.00  0.00  0.00  0.22  0.00  0.78  0.00  0.00  0.00
  WS02006232WS02006231    1.00   0.00  0.00  0.00  0.99  0.00  0.01  0.00  0.00  0.00
  WS02006234WS02006232    1.00   0.00  0.00  0.00  1.00  0.00  0.00  0.00  0.04  0.00
  WS02006235WS02006234    1.00   0.00  0.00  0.00  0.92  0.00  0.08  0.00  0.00  0.00
  WS02006238WS02006235    1.00   0.00  0.00  0.00  1.00  0.00  0.00  0.00  0.00  0.00
  WS02006239WS02006238    1.00   0.00  0.00  0.00  1.00  0.00  0.00  0.00  0.15  0.00
  WS02006240WS02006239    1.00   0.00  0.00  0.00  0.66  0.00  0.00  0.34  0.04  0.00
  WS02006242WS02006240    1.00   0.00  0.00  0.00  0.99  0.00  0.01  0.00  0.00  0.00
  WS02006243WS02006242    1.00   0.00  0.00  0.00  0.99  0.00  0.00  0.01  0.66  0.00
  WS02006245WS02006243    1.00   0.00  0.00  0.00  0.77  0.00  0.00  0.23  0.00  0.00
  WS02006247WS02006245    1.00   0.00  0.00  0.00  0.96  0.00  0.00  0.04  0.00  0.00
  WS02006248WS02006247    1.00   0.00  0.00  0.00  0.98  0.00  0.00  0.02  0.57  0.00
  WS02006249WS02006248    1.00   0.00  0.00  0.00  0.39  0.00  0.61  0.00  0.00  0.00
  WS02006251WS02006249    1.00   0.00  0.00  0.00  0.99  0.01  0.00  0.00  0.61  0.00
  WS02006252WS02006251    1.00   0.00  0.42  0.00  0.08  0.00  0.50  0.00  0.00  0.00
  WS02006256WS02006235    1.00   0.00  0.00  0.00  0.98  0.02  0.00  0.00  0.00  0.00
  WSF200WS02003060        1.00   0.00  0.06  0.00  0.45  0.49  0.00  0.00  0.71  0.00
  YS02001580YS02001583    1.00   0.23  0.57  0.00  0.20  0.00  0.00  0.00  0.66  0.00
  YS02001583YS02001586    1.00   0.42  0.33  0.00  0.25  0.00  0.00  0.00  0.66  0.00
  YS02001586YS02001590    1.00   0.13  0.00  0.00  0.43  0.04  0.00  0.40  0.36  0.00
  YS02001590YS02001593    1.00   0.13  0.01  0.00  0.12  0.00  0.75  0.00  0.00  0.00
  YS02001593YS02001596    1.00   0.13  0.00  0.00  0.14  0.01  0.00  0.72  0.02  0.00
  YS02001596YS02001600    1.00   0.14  0.00  0.00  0.20  0.01  0.00  0.65  0.04  0.00
  YS02001600YS02001601    1.00   0.13  0.01  0.00  0.86  0.00  0.00  0.00  0.60  0.00
  YS02001601YS02001602    1.00   0.13  0.01  0.00  0.87  0.00  0.00  0.00  0.00  0.00
  YS02001602YS02001605    1.00   0.13  0.00  0.00  0.86  0.00  0.00  0.00  0.00  0.00
  YS02001605YS02001607    1.00   0.14  0.00  0.00  0.86  0.00  0.00  0.00  0.00  0.00
  YS02001607YS02001610    1.00   0.13  0.01  0.00  0.86  0.00  0.00  0.00  0.01  0.00
  YS02001610YS02001613    1.00   0.13  0.00  0.00  0.87  0.00  0.00  0.00  0.00  0.00
  YS02001613YS02001616    1.00   0.13  0.00  0.00  0.87  0.00  0.00  0.00  0.00  0.00
  YS02001616YS02001619    1.00   0.13  0.00  0.00  0.87  0.00  0.00  0.00  0.00  0.00
  YS02001619YS02001622    1.00   0.13  0.00  0.00  0.87  0.00  0.00  0.00  0.28  0.00
  YS02001622YS02001625    1.00   0.13  0.00  0.00  0.87  0.00  0.00  0.00  0.04  0.00
  YS02001625YS02001629    1.00   0.13  0.05  0.00  0.16  0.00  0.66  0.00  0.00  0.00
  YS02001629YS02163301    1.00   0.15  0.01  0.00  0.84  0.00  0.00  0.00  0.00  0.00
  YS02001633YS02163601    1.00   0.00  0.01  0.00  0.99  0.00  0.00  0.00  0.15  0.00
  YS02001641YS02001644    1.00   0.00  0.01  0.00  0.99  0.00  0.00  0.00  0.00  0.00
  YS02001644YS02001647    1.00   0.00  0.17  0.00  0.83  0.00  0.00  0.00  0.00  0.00
  YS02001647YS02001649    1.00   0.00  0.17  0.00  0.55  0.28  0.00  0.00  0.57  0.00
  YS02001649YS02001757    1.00   0.00  0.00  0.00  0.70  0.30  0.00  0.00  0.46  0.00
  YS02001652YS02001649    1.00   0.00  0.00  0.00  0.97  0.03  0.00  0.00  0.74  0.00
  YS02001655YS02001652    1.00   0.00  0.00  0.00  0.19  0.01  0.00  0.80  0.05  0.00
  YS02001658YS02001655    1.00   0.00  0.14  0.00  0.66  0.20  0.00  0.00  0.68  0.00
  YS02001661YS02001658    1.00   0.14  0.00  0.00  0.50  0.36  0.00  0.00  0.69  0.00
  YS02001664YS02001661    1.00   0.13  0.00  0.00  0.76  0.11  0.00  0.00  0.85  0.00
  YS02001745YS02001748    1.00   0.00  0.00  0.00  0.10  0.01  0.00  0.90  0.05  0.00
  YS02001748YS02001751    1.00   0.00  0.00  0.00  0.82  0.18  0.00  0.00  0.77  0.00
  YS02001751YS02001754    1.00   0.00  0.00  0.00  0.16  0.01  0.00  0.83  0.03  0.00
  YS02001754YS02001757    1.00   0.00  0.00  0.00  1.00  0.00  0.00  0.00  0.83  0.00
  YS02001757CaochengTiaoxuchi    1.00   0.00  0.00  0.00  0.96  0.04  0.00  0.00  0.79  0.00
  YS02001759YS02001757    1.00   0.00  0.00  0.00  1.00  0.00  0.00  0.00  0.60  0.00
  YS02001762YS02001759    1.00   0.00  0.00  0.00  1.00  0.00  0.00  0.00  0.04  0.00
  YS02001765YS02001762    1.00   0.00  0.00  0.00  1.00  0.00  0.00  0.00  0.73  0.00
  YS02001767YS02001765    1.00   0.00  0.00  0.00  1.00  0.00  0.00  0.00  0.00  0.00
  YS02001770YS02001767    1.00   0.00  0.00  0.00  1.00  0.00  0.00  0.00  0.00  0.00
  YS02001774YS02001770    1.00   0.00  0.13  0.00  0.70  0.00  0.17  0.00  0.03  0.00
  YS02001779YS02001774    1.00   0.00  0.00  0.00  1.00  0.00  0.00  0.00  0.78  0.00
  YS02001783YS02001784    1.00   0.00  0.18  0.00  0.82  0.00  0.00  0.00  0.55  0.00
  YS02001784YS02001785    1.00   0.00  0.00  0.00  1.00  0.00  0.00  0.00  0.17  0.00
  YS02001786YS02001788    1.00   0.00  0.00  0.00  0.80  0.20  0.00  0.00  0.00  0.00
  YS02001788YS02001790    1.00   0.00  0.00  0.00  0.21  0.79  0.00  0.00  0.80  0.00
  YS02001790YS02001791    1.00   0.00  0.00  0.00  0.01  0.99  0.00  0.00  0.16  0.00
  YS02001791YS02001793    1.00   0.00  0.00  0.00  0.00  1.00  0.00  0.00  0.01  0.00
  YS02001793JiankangQianchi    1.00   0.00  0.00  0.00  0.97  0.03  0.00  0.00  0.96  0.00
  YS02001882YS02001884    1.00   0.15  0.01  0.00  0.84  0.00  0.00  0.00  0.00  0.00
  YS02001884YS02001887    1.00   0.06  0.05  0.00  0.89  0.00  0.00  0.00  0.00  0.00
  YS02001887YS02001890    1.00   0.00  0.00  0.00  0.97  0.00  0.03  0.00  0.00  0.00
  YS02001890YS02001895    1.00   0.00  0.16  0.00  0.84  0.00  0.00  0.00  0.00  0.00
  YS02001895YS02001898    1.00   0.16  0.00  0.00  0.82  0.00  0.02  0.00  0.00  0.00
  YS02001898YS02001901    1.00   0.17  0.00  0.00  0.83  0.00  0.00  0.00  0.01  0.00
  YS02001901YS02001904    1.00   0.17  0.00  0.00  0.83  0.00  0.00  0.00  0.00  0.00
  YS02001904YS02001907    1.00   0.00  0.16  0.00  0.83  0.00  0.00  0.00  0.00  0.00
  YS02001907YS02006553    1.00   0.00  0.02  0.00  0.98  0.00  0.00  0.00  0.00  0.00
  YS02001910YS02001907    1.00   0.00  0.00  0.00  0.97  0.00  0.00  0.03  0.12  0.00
  YS02001915YS02001910    1.00   0.00  0.00  0.00  0.97  0.03  0.00  0.00  0.16  0.00
  YS02001918YS02001915    1.00   0.00  0.01  0.00  0.98  0.02  0.00  0.00  0.75  0.00
  YS02001920YS02001918    1.00   0.00  0.01  0.00  0.99  0.00  0.00  0.00  0.00  0.00
  YS02001923YS02001920    1.00   0.00  0.00  0.00  1.00  0.00  0.00  0.00  0.92  0.00
  YS02001926YS02001923    1.00   0.00  0.07  0.00  0.06  0.00  0.86  0.00  0.00  0.00
  YS02001929YS02001926    1.00   0.00  0.13  0.00  0.87  0.00  0.00  0.00  0.82  0.00
  YS02006553YS02006556    1.00   0.01  0.00  0.00  0.99  0.00  0.00  0.00  0.03  0.00
  YS02006556YS02006558    1.00   0.00  0.00  0.00  1.00  0.00  0.00  0.00  0.00  0.00
  YS02006558YS02006561    1.00   0.18  0.00  0.00  0.06  0.76  0.00  0.00  0.19  0.00
  YS02006561YS02001783    1.00   0.18  0.00  0.00  0.09  0.73  0.00  0.00  0.69  0.00
  YS02163301YS02001633    1.00   0.00  0.15  0.00  0.85  0.00  0.00  0.00  0.00  0.00
  YS02163601YS02164001    1.00   0.00  0.08  0.00  0.92  0.00  0.00  0.00  0.00  0.00
  YS02164001YS02001641    1.00   0.01  0.07  0.00  0.92  0.00  0.00  0.00  0.06  0.00
  
  
  *************************
  Conduit Surcharge Summary
  *************************
  
  ----------------------------------------------------------------------------
                                                           Hours        Hours 
                         --------- Hours Full --------   Above Full   Capacity
  Conduit                Both Ends  Upstream  Dnstream   Normal Flow   Limited
  ----------------------------------------------------------------------------
  WS02003072WS02003073        0.01      0.01      0.01      0.86         0.01
  WS02004404WS02004405        0.01      0.01      0.01      2.32         0.01
  WS02004405WS02004406        0.01      0.01      0.01      0.48         0.01
  WS02006109WS02006110        0.56      0.56      1.68      0.63         0.01
  WS02006110WS02006113        0.01      0.01      1.65      0.01         0.01
  WS02006111WS02006112        0.01      0.01      1.76      0.01         0.01
  WS02006112WS02006115        0.01      0.01      0.54      0.01         0.01
  WS02006228WS02006109        1.60      1.68      1.60      1.85         1.60
  WS02006229WS02006228        1.60      1.62      1.60      1.78         1.59
  WS02006230WS02006229        1.73      1.76      1.73      3.14         1.73
  WS02006231WS02006230        0.56      0.56      0.68      2.59         0.01
  WS02006232WS02006231        0.65      0.65      1.68      0.69         0.01
  WS02006234WS02006232        1.56      1.56      1.68      0.68         0.67
  WS02006235WS02006234        0.87      0.87      1.60      2.40         0.01
  WS02006238WS02006235        1.63      1.63      1.67      0.01         0.01
  WS02006239WS02006238        1.59      1.60      1.64      1.57         1.43
  WS02006240WS02006239        1.57      1.58      1.57      1.58         1.36
  WS02006242WS02006240        1.58      1.58      1.59      1.63         0.01
  WS02006243WS02006242        1.57      1.57      1.59      0.01         0.02
  WS02006245WS02006243        1.56      1.56      1.57      0.99         1.07
  WS02006247WS02006245        1.56      1.56      1.56      2.22         1.55
  WS02006248WS02006247        1.56      1.56      1.56      0.01         0.03
  WS02006249WS02006248        1.55      1.56      1.55      2.12         0.01
  WS02006251WS02006249        1.55      1.55      1.55      1.63         1.51
  WS02006252WS02006251        1.68      1.68      1.71      1.68         0.01
  WS02006256WS02006235        2.42      2.44      7.07      1.13         0.01
  YS02001580YS02001583        0.64      0.64      0.68      0.01         0.01
  YS02001583YS02001586        0.65      0.65      0.76      0.01         0.01
  YS02001586YS02001590        0.77      0.77      0.84      0.01         0.01
  YS02001590YS02001593        0.84      0.84      0.86      0.89         0.01
  YS02001593YS02001596        0.85      0.85      0.95      0.01         0.01
  YS02001596YS02001600        1.00      1.00      1.11      0.01         0.01
  YS02001600YS02001601        1.17      1.17      1.45      0.01         0.01
  YS02001601YS02001602        1.36      1.36      1.49      1.12         0.01
  YS02001602YS02001605        1.31      1.31      1.36      2.27         0.01
  YS02001605YS02001607        1.26      1.31      1.26      1.42         1.26
  YS02001607YS02001610        0.81      0.81      0.84      0.01         0.01
  YS02001610YS02001613        0.81      0.81      0.84      0.01         0.01
  YS02001613YS02001616        0.76      0.76      0.81      0.01         0.01
  YS02001616YS02001619        0.75      0.75      0.76      0.01         0.03
  YS02001619YS02001622        0.74      0.75      0.74      0.86         0.72
  YS02001622YS02001625        0.74      0.74      0.93      0.01         0.01
  YS02001625YS02001629        0.70      0.70      0.93      0.01         0.01
  YS02001629YS02163301        0.92      0.92      0.93      0.22         0.20
  YS02001633YS02163601        0.95      0.95      0.98      0.38         0.37
  YS02001641YS02001644        0.85      0.89      0.85      1.52         0.84
  YS02001644YS02001647        0.64      0.64      0.85      0.04         0.01
  YS02001647YS02001649        0.64      0.64      0.77      0.01         0.01
  YS02001649YS02001757        0.76      0.77      0.82      0.08         0.08
  YS02001652YS02001649        0.58      0.58      0.77      0.01         0.01
  YS02001655YS02001652        0.39      0.39      0.56      0.01         0.01
  YS02001658YS02001655        0.22      0.22      0.39      0.01         0.01
  YS02001661YS02001658        0.07      0.07      0.22      0.01         0.01
  YS02001664YS02001661        0.01      0.01      0.11      0.01         0.01
  YS02001745YS02001748        0.01      0.01      0.16      0.01         0.01
  YS02001748YS02001751        0.20      0.20      0.29      0.01         0.01
  YS02001751YS02001754        0.29      0.29      0.45      0.01         0.01
  YS02001754YS02001757        0.50      0.50      0.82      0.01         0.01
  YS02001757CaochengTiaoxuchi        0.76      0.82      1.32      0.40         0.30
  YS02001759YS02001757        0.72      0.72      0.82      0.04         0.05
  YS02001762YS02001759        0.69      0.69      0.72      0.01         0.02
  YS02001765YS02001762        0.64      0.64      0.69      0.01         0.01
  YS02001767YS02001765        0.60      0.60      0.64      0.01         0.03
  YS02001770YS02001767        0.60      0.60      0.60      0.56         0.44
  YS02001774YS02001770        0.58      0.58      0.68      0.01         0.01
  YS02001779YS02001774        0.45      0.45      0.68      0.01         0.01
  YS02001783YS02001784        0.53      0.56      0.53      0.70         0.53
  YS02001784YS02001785        0.43      0.53      0.43      0.94         0.43
  YS02001786YS02001788        0.01      0.43      0.01      0.80         0.01
  YS02001790YS02001791        0.01      0.01      0.01      0.52         0.01
  YS02001793JiankangQianchi        0.01      0.01      6.57      0.01         0.01
  YS02001882YS02001884        0.50      0.50      0.51      0.01         0.01
  YS02001884YS02001887        0.53      0.53      0.55      0.01         0.01
  YS02001887YS02001890        0.56      0.56      0.57      0.14         0.01
  YS02001890YS02001895        0.49      0.49      0.59      0.01         0.01
  YS02001895YS02001898        0.49      0.49      0.49      0.01         0.01
  YS02001898YS02001901        0.50      0.50      0.53      0.01         0.01
  YS02001901YS02001904        0.52      0.52      0.53      0.01         0.01
  YS02001904YS02001907        0.52      0.52      0.78      0.01         0.01
  YS02001907YS02006553        0.95      0.95      1.02      0.01         0.01
  YS02001910YS02001907        0.59      0.59      0.77      0.01         0.01
  YS02001915YS02001910        0.50      0.50      0.59      0.01         0.01
  YS02001918YS02001915        0.42      0.42      0.50      0.01         0.01
  YS02001920YS02001918        0.42      0.42      0.43      0.01         0.01
  YS02001923YS02001920        0.38      0.38      0.43      0.01         0.01
  YS02001926YS02001923        0.13      0.14      0.16      0.01         0.01
  YS02001929YS02001926        0.01      0.01      0.16      0.01         0.01
  YS02006553YS02006556        0.68      0.68      0.78      0.01         0.01
  YS02006556YS02006558        0.73      0.73      0.80      0.01         0.01
  YS02006558YS02006561        0.45      0.66      0.45      0.89         0.45
  YS02006561YS02001783        0.39      0.39      0.56      0.01         0.01
  YS02163301YS02001633        0.93      0.93      0.97      0.01         0.01
  YS02163601YS02164001        0.89      0.89      0.98      0.07         0.01
  YS02164001YS02001641        0.89      0.89      0.89      0.74         0.65
  
  
  ***************
  Pumping Summary
  ***************
  
  ---------------------------------------------------------------------------------------------------------
                                                  Min       Avg       Max     Total     Power    % Time Off
                        Percent   Number of      Flow      Flow      Flow    Volume     Usage    Pump Curve
  Pump                 Utilized   Start-Ups       LPS       LPS       LPS  10^6 ltr     Kw-hr    Low   High
  ---------------------------------------------------------------------------------------------------------
  CC-R1                   22.93          27      0.00    683.00    683.00     4.510     82.00    0.0   32.5
  CC-R2                   21.61          26      0.00    683.00    683.00     4.251     77.36    0.0   32.9
  CC-S1                   26.37          19      0.00    200.00    200.00     1.519      8.94    0.0    0.0
  CC-S2                   24.80          30      0.00    200.00    200.00     1.429      8.38    0.0    0.0
  JK-R1                    7.16          16      0.00   1000.00   1000.00     2.063     20.57    0.0    0.0
  JK-R2                    3.39          17      0.00   1000.00   1000.00     0.975      7.67    0.0    0.0
  JK-S                    13.67          31      0.00    300.00    300.00     1.181     19.77    0.0    0.0
  

  Analysis begun on:  Mon Dec 30 10:19:57 2024
  Analysis ended on:  Mon Dec 30 10:19:58 2024
  Total elapsed time: 00:00:01