
  EPA STORM WATER MANAGEMENT MODEL - VERSION 5.2 (Build 5.2.4)
  PYSWMM TOOLKIT API - VERSION v1.0 (2023-11-27)
  ------------------------------------------------------------

  WARNING 04: minimum elevation drop used for Conduit WS02004404WS02004405
  WARNING 03: negative offset ignored for Link YS02001904YS02001907
  
  ****************
  Analysis Options
  ****************
  Flow Units ............... LPS
  Process Models:
    Rainfall/Runoff ........ YES
    RDII ................... NO
    Snowmelt ............... NO
    Groundwater ............ NO
    Flow Routing ........... YES
    Ponding Allowed ........ NO
    Water Quality .......... NO
  Infiltration Method ...... HORTON
  Flow Routing Method ...... DYNWAVE
  Surcharge Method ......... EXTRAN
  Starting Date ............ 08/28/2015 08:00:00
  Ending Date .............. 08/28/2015 16:00:00
  Antecedent Dry Days ...... 8.0
  Report Time Step ......... 00:01:00
  Wet Time Step ............ 00:01:00
  Dry Time Step ............ 00:01:00
  Routing Time Step ........ 30.00 sec
  Variable Time Step ....... YES
  Maximum Trials ........... 8
  Number of Threads ........ 4
  Head Tolerance ........... 0.001500 m
  
  
  **************************        Volume         Depth
  Runoff Quantity Continuity     hectare-m            mm
  **************************     ---------       -------
  Total Precipitation ......         2.344        70.678
  Evaporation Loss .........         0.000         0.000
  Infiltration Loss ........         0.099         2.996
  Surface Runoff ...........         2.213        66.706
  Final Storage ............         0.033         0.994
  Continuity Error (%) .....        -0.027
  
  
  **************************        Volume        Volume
  Flow Routing Continuity        hectare-m      10^6 ltr
  **************************     ---------     ---------
  Dry Weather Inflow .......         0.025         0.251
  Wet Weather Inflow .......         2.213        22.132
  Groundwater Inflow .......         0.000         0.000
  RDII Inflow ..............         0.000         0.000
  External Inflow ..........         0.083         0.834
  External Outflow .........         1.631        16.306
  Flooding Loss ............         0.761         7.608
  Evaporation Loss .........         0.000         0.000
  Exfiltration Loss ........         0.000         0.000
  Initial Stored Volume ....         0.243         2.431
  Final Stored Volume ......         0.182         1.816
  Continuity Error (%) .....        -0.327
  
  
  *************************
  Highest Continuity Errors
  *************************
  Node YS02001583 (-5.27%)
  Node YS02001884 (4.94%)
  Node WS02006256 (-3.09%)
  
  
  ***************************
  Time-Step Critical Elements
  ***************************
  Link WS02006252WS02006251 (38.79%)
  Link WS02004404WS02004405 (16.21%)
  Link WS02006238WS02006235 (15.22%)
  Link YS02001791YS02001793 (7.79%)
  Link WS02006235WS02006234 (6.78%)
  
  
  ********************************
  Highest Flow Instability Indexes
  ********************************
  Link WS02006113WS02006111 (43)
  Link WS02006111WS02006112 (21)
  Link WS02006256WS02006235 (18)
  Link WS02004404WS02004405 (17)
  Link WS02006252WS02006251 (17)
  
  
  *********************************
  Most Frequent Nonconverging Nodes
  *********************************
  Node CC-1 (12.66%)
  Node CC-2 (12.66%)
  Node JK-1 (12.66%)
  Node JK-2 (12.66%)
  Node WSC (12.66%)
  
  
  *************************
  Routing Time Step Summary
  *************************
  Minimum Time Step           :     0.00 sec
  Average Time Step           :     2.43 sec
  Maximum Time Step           :     6.43 sec
  % of Time in Steady State   :     0.00
  Average Iterations per Step :     3.25
  % of Steps Not Converging   :    12.66
  Time Step Frequencies       :
     30.000 - 13.228 sec      :     0.00 %
     13.228 -  5.833 sec      :    12.63 %
      5.833 -  2.572 sec      :    25.47 %
      2.572 -  1.134 sec      :    19.61 %
      1.134 -  0.500 sec      :    42.29 %
  
  
  ***************************
  Subcatchment Runoff Summary
  ***************************
  
  ------------------------------------------------------------------------------------------------------------------------------
                            Total      Total      Total      Total     Imperv       Perv      Total       Total     Peak  Runoff
                           Precip      Runon       Evap      Infil     Runoff     Runoff     Runoff      Runoff   Runoff   Coeff
  Subcatchment                 mm         mm         mm         mm         mm         mm         mm    10^6 ltr      LPS
  ------------------------------------------------------------------------------------------------------------------------------
  sub60                     70.68       0.00       0.00       1.80      61.00       6.69      67.69        0.89   677.54   0.958
  sub61                     70.68       0.00       0.00       2.61      57.54       9.41      66.95        1.23   940.04   0.947
  sub62                     70.68       0.00       0.00       1.20      63.74       4.46      68.20        1.87  1323.76   0.965
  sub63                     70.68       0.00       0.00       4.81      49.22      15.69      64.91        1.47  1057.63   0.918
  sub64                     70.68       0.00       0.00       2.43      58.87       8.17      67.05        1.61  1073.88   0.949
  sub65                     70.68       0.00       0.00       2.10      60.24       7.09      67.33        1.85  1194.30   0.953
  sub66                     70.68       0.00       0.00       5.98      49.11      14.52      63.63        2.97  1556.00   0.900
  sub67                     70.68       0.00       0.00       1.16      63.79       4.50      68.29        1.27  1027.58   0.966
  sub68                     70.68       0.00       0.00       2.16      59.60       7.74      67.34        1.85  1359.47   0.953
  sub69                     70.68       0.00       0.00       1.92      59.97       8.68      68.65        2.54  1587.38   0.971
  sub70                     70.68       0.00       0.00       6.46      46.49      17.58      64.06        1.85   870.34   0.906
  sub71                     70.68       0.00       0.00       1.23      63.70       4.43      68.13        1.78  1157.70   0.964
  sub72                     70.68       0.00       0.00       1.09      64.33       3.86      68.19        0.94   558.97   0.965
  
  
  ******************
  Node Depth Summary
  ******************
  
  ---------------------------------------------------------------------------------
                                 Average  Maximum  Maximum  Time of Max    Reported
                                   Depth    Depth      HGL   Occurrence   Max Depth
  Node                 Type       Meters   Meters   Meters  days hr:min      Meters
  ---------------------------------------------------------------------------------
  WS02003060           JUNCTION     0.21     0.37     5.31     0  02:44        0.37
  WS02003066           JUNCTION     0.18     0.29     5.84     0  02:13        0.29
  WS02003067           JUNCTION     0.46     0.69     6.01     0  02:13        0.69
  WS02003069           JUNCTION     0.23     0.42     5.00     0  02:14        0.42
  WS02003072           JUNCTION     0.29     0.49     4.86     0  02:15        0.49
  WS02003073           JUNCTION     0.16     0.29     4.35     0  02:16        0.29
  WS02004401           JUNCTION     0.55     0.86     6.86     0  02:11        0.86
  WS02004402           JUNCTION     0.58     0.89     6.85     0  02:11        0.89
  WS02004403           JUNCTION     0.60     0.91     6.84     0  02:11        0.91
  WS02004404           JUNCTION     0.68     0.99     6.84     0  02:41        0.98
  WS02004405           JUNCTION     0.66     0.96     6.81     0  02:11        0.95
  WS02004406           JUNCTION     0.68     0.95     6.78     0  02:11        0.95
  WS02004407           JUNCTION     0.16     0.29     6.61     0  02:11        0.29
  WS02004409           JUNCTION     0.35     0.64     6.41     0  02:42        0.64
  WS02004410           JUNCTION     0.37     0.66     6.38     0  02:42        0.66
  WS02004411           JUNCTION     0.39     0.67     6.35     0  02:42        0.67
  WS02004412           JUNCTION     0.42     0.68     6.32     0  02:13        0.68
  WS02004413           JUNCTION     0.57     0.84     6.31     0  02:13        0.84
  WS02006109           JUNCTION     0.60     1.18     7.80     0  02:36        1.07
  WS02006110           JUNCTION     0.61     1.23     7.82     0  02:36        1.05
  WS02006111           JUNCTION     0.16     0.29     6.99     0  03:16        0.29
  WS02006112           JUNCTION     0.69     1.08     6.96     0  03:21        1.05
  WS02006113           JUNCTION     0.24     0.46     7.35     0  03:16        0.45
  WS02006115           JUNCTION     0.43     0.76     6.90     0  02:10        0.75
  WS02006116           JUNCTION     0.52     0.84     6.88     0  02:10        0.84
  WS02006228           JUNCTION     0.59     1.19     7.84     0  02:35        1.07
  WS02006229           JUNCTION     0.56     1.24     7.93     0  02:35        1.05
  WS02006230           JUNCTION     0.55     1.41     8.16     0  02:35        1.18
  WS02006231           JUNCTION     0.37     1.23     8.35     0  02:35        0.95
  WS02006232           JUNCTION     0.50     1.60     8.64     0  03:35        1.22
  WS02006234           JUNCTION     0.41     1.93     9.08     0  03:35        1.33
  WS02006235           JUNCTION     0.45     1.88     9.04     0  03:35        1.47
  WS02006238           JUNCTION     0.48     1.91     9.05     0  03:35        1.53
  WS02006239           JUNCTION     0.44     1.83     9.03     0  03:35        1.54
  WS02006240           JUNCTION     0.41     1.70     9.00     0  03:35        1.51
  WS02006242           JUNCTION     0.47     1.55     8.82     0  03:35        1.54
  WS02006243           JUNCTION     0.38     1.39     8.81     0  03:35        1.39
  WS02006245           JUNCTION     0.38     1.31     8.79     0  03:35        1.30
  WS02006247           JUNCTION     0.41     1.26     8.76     0  03:35        1.25
  WS02006248           JUNCTION     0.37     1.10     8.69     0  02:35        1.10
  WS02006249           JUNCTION     0.40     1.09     8.69     0  02:03        1.09
  WS02006251           JUNCTION     0.40     2.06     9.73     0  02:03        1.13
  WS02006252           JUNCTION     0.30     1.50     9.74     0  00:00        0.70
  WS02006256           JUNCTION     0.94     2.35     9.28     0  00:00        2.35
  WSF200               JUNCTION     0.15     0.28     5.52     0  02:43        0.28
  YS02001580           JUNCTION     0.12     1.05     9.59     0  01:53        0.77
  YS02001583           JUNCTION     0.15     1.14     9.64     0  01:53        0.82
  YS02001586           JUNCTION     0.24     1.13     9.30     0  01:53        1.13
  YS02001590           JUNCTION     0.35     1.40     9.26     0  01:51        1.37
  YS02001593           JUNCTION     0.28     1.35     9.21     0  01:51        1.29
  YS02001596           JUNCTION     0.37     1.68     9.10     0  01:53        1.65
  YS02001600           JUNCTION     0.44     1.87     9.00     0  01:53        1.86
  YS02001601           JUNCTION     0.64     2.06     8.90     0  01:51        2.06
  YS02001602           JUNCTION     0.55     1.87     8.77     0  01:53        1.87
  YS02001605           JUNCTION     0.51     1.78     8.68     0  01:53        1.78
  YS02001607           JUNCTION     0.49     1.68     8.53     0  01:53        1.64
  YS02001610           JUNCTION     0.53     1.68     8.48     0  01:53        1.68
  YS02001613           JUNCTION     0.49     1.70     8.54     0  01:53        1.66
  YS02001616           JUNCTION     0.43     1.61     8.52     0  01:53        1.61
  YS02001619           JUNCTION     0.40     1.61     8.54     0  01:53        1.61
  YS02001622           JUNCTION     0.39     1.62     8.52     0  01:53        1.58
  YS02001625           JUNCTION     0.64     1.78     8.38     0  01:53        1.78
  YS02001629           JUNCTION     0.52     1.85     8.40     0  01:53        1.85
  YS02001633           JUNCTION     0.60     2.05     8.51     0  01:57        2.01
  YS02001641           JUNCTION     0.57     1.96     8.40     0  01:57        1.94
  YS02001644           JUNCTION     0.57     1.92     8.35     0  01:57        1.92
  YS02001647           JUNCTION     0.36     1.82     8.43     0  01:58        1.75
  YS02001649           JUNCTION     0.40     2.05     8.44     0  01:58        1.98
  YS02001652           JUNCTION     0.29     2.16     8.76     0  01:58        1.83
  YS02001655           JUNCTION     0.22     2.20     9.05     0  01:58        1.64
  YS02001658           JUNCTION     0.16     2.30     9.44     0  01:58        1.40
  YS02001661           JUNCTION     0.18     2.23     9.63     0  01:58        1.21
  YS02001664           JUNCTION     0.07     0.72     8.64     0  01:59        0.68
  YS02001745           JUNCTION     0.09     0.96     8.48     0  01:58        0.85
  YS02001748           JUNCTION     0.15     2.27     9.35     0  01:58        1.27
  YS02001751           JUNCTION     0.19     2.20     9.08     0  01:57        1.44
  YS02001754           JUNCTION     0.26     2.20     8.81     0  01:57        1.70
  YS02001757           JUNCTION     0.42     2.21     8.47     0  01:58        2.03
  YS02001759           JUNCTION     0.36     2.21     8.57     0  01:58        2.04
  YS02001762           JUNCTION     0.35     2.15     8.55     0  01:58        2.01
  YS02001765           JUNCTION     0.33     2.10     8.55     0  01:58        1.97
  YS02001767           JUNCTION     0.33     2.03     8.52     0  01:58        1.94
  YS02001770           JUNCTION     0.34     1.95     8.44     0  01:57        1.95
  YS02001774           JUNCTION     0.40     2.02     8.44     0  01:57        1.99
  YS02001779           JUNCTION     0.24     1.68     8.37     0  01:56        1.68
  YS02001783           JUNCTION     0.28     1.32     7.46     0  01:56        1.24
  YS02001784           JUNCTION     0.29     1.18     7.25     0  01:56        1.12
  YS02001786           JUNCTION     0.24     0.93     6.96     0  01:56        0.87
  YS02001788           JUNCTION     0.17     0.62     6.60     0  02:00        0.62
  YS02001790           JUNCTION     0.20     0.72     6.37     0  02:00        0.72
  YS02001791           JUNCTION     0.13     0.44     5.91     0  02:00        0.43
  YS02001793           JUNCTION     0.07     0.23     5.06     0  02:00        0.21
  YS02001882           JUNCTION     0.35     1.83     8.55     0  01:54        1.67
  YS02001884           JUNCTION     0.44     1.92     8.53     0  01:54        1.76
  YS02001887           JUNCTION     0.51     1.92     8.45     0  01:54        1.85
  YS02001890           JUNCTION     0.54     1.81     8.32     0  01:54        1.81
  YS02001895           JUNCTION     0.32     1.71     8.46     0  01:54        1.63
  YS02001898           JUNCTION     0.33     1.71     8.44     0  01:54        1.68
  YS02001901           JUNCTION     0.44     1.77     8.38     0  01:56        1.75
  YS02001904           JUNCTION     0.42     1.70     8.33     0  01:56        1.65
  YS02001907           JUNCTION     0.72     1.96     8.25     0  01:56        1.96
  YS02001910           JUNCTION     0.53     2.01     8.52     0  01:59        1.95
  YS02001915           JUNCTION     0.36     2.00     8.72     0  01:54        1.91
  YS02001918           JUNCTION     0.21     1.81     8.88     0  01:56        1.81
  YS02001920           JUNCTION     0.29     2.14     9.15     0  01:56        2.04
  YS02001923           JUNCTION     0.16     2.03     9.29     0  01:56        1.95
  YS02001926           JUNCTION     0.19     1.90     9.35     0  01:56        1.90
  YS02001929           JUNCTION     0.11     1.78     9.47     0  01:56        1.66
  YS02006553           JUNCTION     0.73     1.99     8.27     0  01:59        1.98
  YS02006556           JUNCTION     0.70     1.97     8.28     0  01:59        1.97
  YS02006558           JUNCTION     0.74     2.02     8.29     0  01:59        2.01
  YS02006561           JUNCTION     0.18     1.03     7.69     0  01:56        0.91
  YS02163301           JUNCTION     0.54     1.94     8.46     0  01:57        1.91
  YS02163601           JUNCTION     0.63     2.08     8.48     0  01:57        2.02
  YS02164001           JUNCTION     0.56     2.00     8.45     0  01:57        1.94
  CC-1                 OUTFALL      0.00     0.00     0.00     0  00:00        0.00
  CC-2                 OUTFALL      0.00     0.00     0.00     0  00:00        0.00
  JK-1                 OUTFALL      0.00     0.00     0.00     0  00:00        0.00
  JK-2                 OUTFALL      0.00     0.00     0.00     0  00:00        0.00
  WSC                  OUTFALL      0.16     0.29     0.96     0  02:16        0.29
  CC-storage           STORAGE      0.78     1.66     7.16     0  02:31        1.66
  JK-storage           STORAGE      1.52     4.20     5.00     0  01:50        4.05
  
  
  *******************
  Node Inflow Summary
  *******************
  
  -------------------------------------------------------------------------------------------------
                                  Maximum  Maximum                  Lateral       Total        Flow
                                  Lateral    Total  Time of Max      Inflow      Inflow     Balance
                                   Inflow   Inflow   Occurrence      Volume      Volume       Error
  Node                 Type           LPS      LPS  days hr:min    10^6 ltr    10^6 ltr     Percent
  -------------------------------------------------------------------------------------------------
  WS02003060           JUNCTION     16.53   524.40     0  02:43       0.476        4.25       0.053
  WS02003066           JUNCTION      0.00   506.79     0  02:13           0        3.77       0.036
  WS02003067           JUNCTION      0.00   506.33     0  02:13           0        3.78       0.110
  WS02003069           JUNCTION      0.32   524.75     0  02:14     0.00922        4.25       0.092
  WS02003072           JUNCTION      0.00   523.19     0  02:15           0        4.25       0.163
  WS02003073           JUNCTION      1.82   523.58     0  02:15      0.0524        4.29       0.131
  WS02004401           JUNCTION      0.00   536.08     0  03:18           0        3.87       0.262
  WS02004402           JUNCTION      0.00   528.12     0  02:10           0        3.86       0.266
  WS02004403           JUNCTION      0.00   530.56     0  03:18           0        3.85       0.259
  WS02004404           JUNCTION      0.16   537.95     0  02:41     0.00467        3.85       0.237
  WS02004405           JUNCTION      0.04   583.43     0  02:10      0.0011        3.84       0.278
  WS02004406           JUNCTION      0.00   530.36     0  02:11           0        3.83       0.542
  WS02004407           JUNCTION      0.00   526.48     0  02:11           0        3.81       0.027
  WS02004409           JUNCTION      0.00   525.50     0  02:11           0        3.81       0.066
  WS02004410           JUNCTION      0.00   520.20     0  02:12           0        3.81       0.113
  WS02004411           JUNCTION      0.00   514.34     0  02:12           0         3.8       0.144
  WS02004412           JUNCTION      0.00   511.16     0  02:12           0         3.8       0.194
  WS02004413           JUNCTION      0.00   508.17     0  02:13           0        3.79       0.354
  WS02006109           JUNCTION      1.23   565.34     0  03:16      0.0354        3.92       0.199
  WS02006110           JUNCTION      0.00   568.48     0  03:16           0        3.91       0.167
  WS02006111           JUNCTION      0.00   561.49     0  03:16           0        3.91       0.021
  WS02006112           JUNCTION      0.00   543.46     0  03:16           0         3.9       0.474
  WS02006113           JUNCTION      0.00   579.78     0  03:16           0        3.91       0.039
  WS02006115           JUNCTION      0.00   559.66     0  03:16           0        3.89       0.173
  WS02006116           JUNCTION      0.00   542.47     0  03:17           0        3.88       0.125
  WS02006228           JUNCTION      0.00   559.50     0  03:16           0        3.89       0.094
  WS02006229           JUNCTION      0.00   558.31     0  03:16           0        3.89       0.134
  WS02006230           JUNCTION     10.28   591.43     0  02:35       0.296         3.9       0.159
  WS02006231           JUNCTION      0.00   572.57     0  02:35           0         3.6      -0.073
  WS02006232           JUNCTION      0.00   570.59     0  02:35           0        3.61       0.226
  WS02006234           JUNCTION      0.00   565.13     0  02:35           0         3.6      -0.378
  WS02006235           JUNCTION      0.00   558.84     0  02:35           0        3.71       0.395
  WS02006238           JUNCTION      0.00   421.57     0  02:10           0        3.15      -0.065
  WS02006239           JUNCTION      0.00   421.48     0  02:10           0        3.07      -0.064
  WS02006240           JUNCTION      0.00   419.69     0  02:10           0        3.02      -0.037
  WS02006242           JUNCTION      0.00   419.41     0  02:10           0           3      -0.019
  WS02006243           JUNCTION      0.00   418.56     0  02:10           0        2.99      -0.195
  WS02006245           JUNCTION      0.00   418.17     0  02:10           0           3       0.400
  WS02006247           JUNCTION      0.00   417.81     0  03:21           0           3      -0.009
  WS02006248           JUNCTION      0.00   417.30     0  03:21           0           3      -0.041
  WS02006249           JUNCTION      0.00   459.52     0  02:35           0        3.08       0.527
  WS02006251           JUNCTION      0.08   420.46     0  02:35     0.00222        3.08       0.008
  WS02006252           JUNCTION      0.00   400.00     0  00:00           0        3.06      -0.433
  WS02006256           JUNCTION      0.00   300.00     0  00:00           0       0.802      -2.997
  WSF200               JUNCTION      0.00   506.97     0  02:13           0        3.77       0.013
  YS02001580           JUNCTION      0.00   133.77     0  01:53           0     0.00449       2.109
  YS02001583           JUNCTION      0.00   180.87     0  01:53           0      0.0155      -5.008
  YS02001586           JUNCTION    870.34   870.49     0  02:04        1.85        1.86       0.061
  YS02001590           JUNCTION      0.00   318.38     0  02:03           0        1.36      -0.035
  YS02001593           JUNCTION      0.00   318.18     0  02:03           0        1.36       0.002
  YS02001596           JUNCTION      0.00   318.03     0  02:11           0        1.36      -0.012
  YS02001600           JUNCTION      0.00   318.04     0  02:24           0        1.36       0.001
  YS02001601           JUNCTION   1587.38  1905.02     0  02:02        2.54         3.9       0.003
  YS02001602           JUNCTION      0.00   525.11     0  01:53           0        2.27       0.016
  YS02001605           JUNCTION      0.00   525.14     0  01:53           0        2.14       0.017
  YS02001607           JUNCTION      0.00   524.72     0  01:53           0        2.14       0.087
  YS02001610           JUNCTION      0.00   877.07     0  02:03           0        2.49       0.073
  YS02001613           JUNCTION      0.00   541.49     0  02:03           0        1.98       0.078
  YS02001616           JUNCTION      0.00   541.09     0  02:03           0        1.98       0.014
  YS02001619           JUNCTION   1556.00  1556.00     0  02:03        2.97         4.6      -0.005
  YS02001622           JUNCTION      0.00  1022.50     0  02:02           0        4.24      -0.005
  YS02001625           JUNCTION      0.00  1421.83     0  02:05           0        4.49       0.187
  YS02001629           JUNCTION      0.00   929.05     0  01:55           0        3.48       0.015
  YS02001633           JUNCTION   1194.50  1395.82     0  01:55        1.86           5       0.066
  YS02001641           JUNCTION      0.00  1396.36     0  01:55           0        4.67       0.057
  YS02001644           JUNCTION   1073.92  1828.54     0  01:55        1.61        6.27       0.041
  YS02001647           JUNCTION      0.00  1827.02     0  01:55           0        5.62       0.010
  YS02001649           JUNCTION      0.00  2103.96     0  01:56           0         7.1       0.002
  YS02001652           JUNCTION      0.00  1084.98     0  02:01           0        1.48      -0.091
  YS02001655           JUNCTION      0.15  1085.27     0  02:02     0.00443        1.48      -0.067
  YS02001658           JUNCTION      0.00  1084.96     0  02:02           0        1.47      -0.054
  YS02001661           JUNCTION      0.00  1084.40     0  02:01           0        1.48       0.037
  YS02001664           JUNCTION   1057.63  1057.63     0  02:02        1.47        1.47      -0.011
  YS02001745           JUNCTION    677.55   677.55     0  02:02        0.89        0.89       0.185
  YS02001748           JUNCTION      0.04   695.31     0  02:02      0.0013        0.89      -0.299
  YS02001751           JUNCTION      0.01   695.32     0  02:02    0.000317       0.897       0.072
  YS02001754           JUNCTION      0.26   696.00     0  02:02     0.00749        0.91      -0.184
  YS02001757           JUNCTION      0.00  3587.59     0  02:00           0        10.8       0.045
  YS02001759           JUNCTION    940.08  1501.19     0  02:01        1.23         2.8      -0.011
  YS02001762           JUNCTION      0.00   818.92     0  01:58           0        1.57      -0.006
  YS02001765           JUNCTION      0.00   819.02     0  01:58           0        1.57       0.006
  YS02001767           JUNCTION      0.54   819.43     0  01:58      0.0154        1.57       0.002
  YS02001770           JUNCTION   1323.91  1323.91     0  02:02        1.87        1.92      -0.009
  YS02001774           JUNCTION      0.00   811.45     0  02:02           0       0.382       0.257
  YS02001779           JUNCTION      0.01   811.81     0  02:02    0.000144       0.339      -0.356
  YS02001783           JUNCTION      0.00  1169.95     0  02:00           0        4.06       0.005
  YS02001784           JUNCTION      1.06  1171.13     0  02:00      0.0305        4.09       0.013
  YS02001786           JUNCTION      0.06  1171.07     0  02:00     0.00162        4.09       0.016
  YS02001788           JUNCTION      0.07  1171.15     0  01:59     0.00204         4.1       0.007
  YS02001790           JUNCTION      0.15  1179.61     0  02:00     0.00446         4.1       0.029
  YS02001791           JUNCTION      0.00  1280.48     0  02:00           0         4.1      -0.030
  YS02001793           JUNCTION      0.00  1241.54     0  02:01           0         4.1       0.007
  YS02001882           JUNCTION      0.00    72.80     0  01:54           0      0.0125       4.151
  YS02001884           JUNCTION      0.00    82.84     0  01:54           0      0.0482       5.201
  YS02001887           JUNCTION   1028.03  1029.19     0  02:01        1.28        1.32       0.326
  YS02001890           JUNCTION      0.00  1028.77     0  02:01           0        1.28       0.375
  YS02001895           JUNCTION      0.00   518.68     0  02:03           0        1.09       0.143
  YS02001898           JUNCTION      0.00   517.61     0  02:07           0        1.09       0.013
  YS02001901           JUNCTION      0.00   517.85     0  02:05           0        1.09       0.291
  YS02001904           JUNCTION      0.00   517.75     0  02:05           0         1.1       0.241
  YS02001907           JUNCTION      0.00  2428.05     0  02:02           0        3.92       0.441
  YS02001910           JUNCTION      0.00  1726.10     0  02:02           0         2.8       0.250
  YS02001915           JUNCTION   1157.72  1726.19     0  02:02        1.78        2.84       0.054
  YS02001918           JUNCTION      0.00   569.67     0  02:02           0        1.09      -0.004
  YS02001920           JUNCTION      2.87   568.63     0  02:02      0.0827        1.07       0.074
  YS02001923           JUNCTION      0.04   565.91     0  02:02     0.00109       0.974      -0.052
  YS02001926           JUNCTION      0.05   635.36     0  01:56      0.0015       0.954       0.004
  YS02001929           JUNCTION    558.97   558.97     0  02:03       0.938        0.94      -0.006
  YS02006553           JUNCTION      0.00   799.73     0  02:20           0         2.3       0.517
  YS02006556           JUNCTION      0.00   800.14     0  02:20           0        2.31       0.334
  YS02006558           JUNCTION   1360.35  1360.35     0  02:02        1.88        4.13       0.085
  YS02006561           JUNCTION      0.00  1174.13     0  01:56           0        4.06      -0.002
  YS02163301           JUNCTION      0.00   926.97     0  01:55           0        3.47       0.040
  YS02163601           JUNCTION      0.11  1395.30     0  01:55     0.00317        4.66       0.103
  YS02164001           JUNCTION      0.00  1395.82     0  01:55           0        4.66       0.044
  CC-1                 OUTFALL       0.00   683.00     0  00:00           0        4.98       0.000
  CC-2                 OUTFALL       0.00   683.00     0  00:00           0        3.63       0.000
  JK-1                 OUTFALL       0.00  1000.00     0  00:00           0         1.9       0.000
  JK-2                 OUTFALL       0.00  1000.00     0  00:00           0        1.51       0.000
  WSC                  OUTFALL       0.00   521.47     0  02:16           0        4.29       0.000
  CC-storage           STORAGE       0.00  3587.03     0  02:00           0          13      -0.245
  JK-storage           STORAGE       0.00  1289.59     0  02:00           0        4.25      -0.369
  
  
  **********************
  Node Surcharge Summary
  **********************
  
  Surcharging occurs when water rises above the top of the highest conduit.
  ---------------------------------------------------------------------
                                               Max. Height   Min. Depth
                                   Hours       Above Crown    Below Rim
  Node                 Type      Surcharged         Meters       Meters
  ---------------------------------------------------------------------
  WS02006109           JUNCTION        1.57          0.358        1.462
  WS02006110           JUNCTION        0.19          0.323        1.527
  WS02006112           JUNCTION        0.21          0.081        1.599
  WS02006228           JUNCTION        1.57          0.358        1.842
  WS02006229           JUNCTION        1.57          0.435        2.015
  WS02006230           JUNCTION        0.20          0.333        1.237
  WS02006231           JUNCTION        0.25          0.518        1.012
  WS02006232           JUNCTION        1.59          0.897        0.583
  WS02006234           JUNCTION        0.42          1.206        0.034
  WS02006235           JUNCTION        1.55          1.169        0.121
  WS02006238           JUNCTION        1.57          1.187        0.243
  WS02006239           JUNCTION        1.56          1.086        0.204
  WS02006240           JUNCTION        1.57          0.994        0.396
  WS02006242           JUNCTION        1.57          0.820        0.000
  WS02006243           JUNCTION        1.56          0.681        0.089
  WS02006245           JUNCTION        1.55          0.599        0.251
  WS02006247           JUNCTION        1.55          0.549        0.211
  WS02006248           JUNCTION        1.54          0.380        0.000
  WS02006249           JUNCTION        1.54          0.390        0.000
  WS02006251           JUNCTION        0.27          1.028        0.152
  WS02006252           JUNCTION        1.74          1.100        0.000
  WS02006256           JUNCTION        6.22          2.050        0.000
  YS02001580           JUNCTION        0.66          0.450        0.000
  YS02001583           JUNCTION        0.67          0.500        0.000
  YS02001586           JUNCTION        0.78          0.510        0.000
  YS02001590           JUNCTION        0.85          0.750        0.000
  YS02001593           JUNCTION        0.85          0.732        0.108
  YS02001596           JUNCTION        0.96          0.951        0.119
  YS02001600           JUNCTION        1.12          1.190        0.000
  YS02001601           JUNCTION        1.45          1.440        0.000
  YS02001602           JUNCTION        1.35          1.270        0.000
  YS02001605           JUNCTION        1.31          1.180        0.000
  YS02001607           JUNCTION        0.84          0.680        0.000
  YS02001610           JUNCTION        0.86          0.680        0.000
  YS02001613           JUNCTION        0.83          0.700        0.000
  YS02001616           JUNCTION        0.78          0.610        0.000
  YS02001619           JUNCTION        0.78          0.610        0.000
  YS02001622           JUNCTION        0.78          0.620        0.000
  YS02001625           JUNCTION        0.95          0.780        0.000
  YS02001629           JUNCTION        0.73          0.470        0.000
  YS02001633           JUNCTION        0.98          1.033        0.027
  YS02001641           JUNCTION        0.92          0.963        0.137
  YS02001644           JUNCTION        0.89          0.920        0.000
  YS02001647           JUNCTION        0.68          0.816        0.084
  YS02001649           JUNCTION        0.80          1.050        0.000
  YS02001652           JUNCTION        0.60          1.130        0.000
  YS02001655           JUNCTION        0.44          1.200        0.000
  YS02001658           JUNCTION        0.25          1.300        0.000
  YS02001661           JUNCTION        0.10          1.160        0.230
  YS02001748           JUNCTION        0.20          1.190        0.000
  YS02001751           JUNCTION        0.32          1.200        0.000
  YS02001754           JUNCTION        0.50          1.150        0.000
  YS02001757           JUNCTION        0.87          1.210        0.000
  YS02001759           JUNCTION        0.77          1.206        0.004
  YS02001762           JUNCTION        0.74          1.150        0.000
  YS02001765           JUNCTION        0.69          1.100        0.000
  YS02001767           JUNCTION        0.66          1.030        0.000
  YS02001770           JUNCTION        0.63          0.920        0.000
  YS02001774           JUNCTION        0.72          1.021        0.029
  YS02001779           JUNCTION        0.49          0.680        0.000
  YS02001783           JUNCTION        0.57          0.515        1.085
  YS02001784           JUNCTION        0.55          0.384        1.106
  YS02001786           JUNCTION        0.44          0.131        1.299
  YS02001882           JUNCTION        0.52          0.830        0.000
  YS02001884           JUNCTION        0.53          0.856        0.014
  YS02001887           JUNCTION        0.56          0.866        0.084
  YS02001890           JUNCTION        0.57          0.760        0.000
  YS02001895           JUNCTION        0.51          0.708        0.042
  YS02001898           JUNCTION        0.50          0.677        0.063
  YS02001901           JUNCTION        0.55          0.774        0.096
  YS02001904           JUNCTION        0.54          0.698        0.152
  YS02001907           JUNCTION        0.77          0.950        0.000
  YS02001910           JUNCTION        0.60          1.010        0.090
  YS02001915           JUNCTION        0.51          1.000        0.000
  YS02001918           JUNCTION        0.43          0.810        0.000
  YS02001920           JUNCTION        0.45          1.140        0.000
  YS02001923           JUNCTION        0.16          0.820        0.000
  YS02001926           JUNCTION        0.18          0.900        0.000
  YS02001929           JUNCTION        0.02          0.780        0.000
  YS02006553           JUNCTION        0.79          0.985        0.205
  YS02006556           JUNCTION        0.69          0.926        0.424
  YS02006558           JUNCTION        0.68          0.923        0.477
  YS02006561           JUNCTION        0.40          0.226        0.924
  YS02163301           JUNCTION        0.96          0.944        0.086
  YS02163601           JUNCTION        1.01          1.078        0.002
  YS02164001           JUNCTION        0.92          0.996        0.104
  
  
  *********************
  Node Flooding Summary
  *********************
  
  Flooding refers to all water that overflows a node, whether it ponds or not.
  --------------------------------------------------------------------------
                                                             Total   Maximum
                                 Maximum   Time of Max       Flood    Ponded
                        Hours       Rate    Occurrence      Volume     Depth
  Node                 Flooded       LPS   days hr:min    10^6 ltr    Meters
  --------------------------------------------------------------------------
  WS02006242              0.01      9.57      0  03:35       0.000     0.000
  WS02006248              0.01     14.17      0  03:16       0.000     0.000
  WS02006249              0.26    111.42      0  02:03       0.062     0.000
  WS02006252              0.01    245.63      0  00:00       0.000     0.000
  WS02006256              0.74    293.19      0  00:00       0.205     0.000
  YS02001580              0.01    118.35      0  01:53       0.000     0.000
  YS02001583              0.01    114.04      0  01:53       0.000     0.000
  YS02001586              0.54    552.69      0  02:04       0.495     0.000
  YS02001590              0.01     31.09      0  01:51       0.000     0.000
  YS02001600              0.01      0.82      0  01:53       0.000     0.000
  YS02001601              0.71   1507.21      0  02:03       1.632     0.000
  YS02001602              0.61     61.99      0  02:21       0.123     0.000
  YS02001605              0.01      3.38      0  01:53       0.000     0.000
  YS02001607              0.01     26.05      0  01:53       0.000     0.000
  YS02001610              0.54    876.97      0  02:04       0.862     0.000
  YS02001613              0.01      2.25      0  01:53       0.000     0.000
  YS02001616              0.01     39.26      0  01:53       0.000     0.000
  YS02001619              0.01     31.58      0  01:53       0.000     0.000
  YS02001622              0.01    114.12      0  01:53       0.000     0.000
  YS02001625              0.49   1421.70      0  02:05       1.331     0.000
  YS02001629              0.15    322.64      0  02:01       0.099     0.000
  YS02001644              0.22   1457.19      0  02:02       0.640     0.000
  YS02001649              0.01     32.59      0  01:58       0.000     0.000
  YS02001652              0.01     45.21      0  01:58       0.000     0.000
  YS02001655              0.01     92.73      0  01:58       0.000     0.000
  YS02001658              0.01    470.87      0  01:58       0.000     0.000
  YS02001748              0.01    362.27      0  01:58       0.000     0.000
  YS02001751              0.01    331.85      0  01:57       0.000     0.000
  YS02001754              0.01     34.15      0  01:57       0.000     0.000
  YS02001757              0.01      5.87      0  01:58       0.000     0.000
  YS02001762              0.01      9.18      0  01:58       0.000     0.000
  YS02001765              0.01      3.95      0  01:58       0.000     0.000
  YS02001767              0.01      3.48      0  01:58       0.000     0.000
  YS02001770              0.02     19.18      0  01:58       0.000     0.000
  YS02001779              0.20    811.62      0  02:02       0.320     0.000
  YS02001882              0.01     36.91      0  01:54       0.000     0.000
  YS02001890              0.20    513.43      0  02:01       0.181     0.000
  YS02001907              0.38   2427.34      0  02:02       1.651     0.000
  YS02001915              0.01    103.52      0  01:54       0.000     0.000
  YS02001918              0.01    209.50      0  01:57       0.003     0.000
  YS02001920              0.01     58.08      0  01:56       0.000     0.000
  YS02001923              0.01    140.51      0  01:56       0.000     0.000
  YS02001926              0.01    190.62      0  01:56       0.001     0.000
  YS02001929              0.01     95.36      0  01:56       0.000     0.000
  
  
  **********************
  Storage Volume Summary
  **********************
  
  ------------------------------------------------------------------------------------------------
                         Average    Avg   Evap  Exfil     Maximum    Max    Time of Max    Maximum
                          Volume   Pcnt   Pcnt   Pcnt      Volume   Pcnt     Occurrence    Outflow
  Storage Unit           1000 m³   Full   Loss   Loss     1000 m³   Full    days hr:min        LPS
  ------------------------------------------------------------------------------------------------
  CC-storage               2.185   34.1    0.0    0.0       4.631   72.2       0  02:31    1783.53
  JK-storage               0.076   26.1    0.0    0.0       0.211   72.4       0  01:50    2300.00
  
  
  ***********************
  Outfall Loading Summary
  ***********************
  
  -----------------------------------------------------------
                         Flow       Avg       Max       Total
                         Freq      Flow      Flow      Volume
  Outfall Node           Pcnt       LPS       LPS    10^6 ltr
  -----------------------------------------------------------
  CC-1                  40.60    683.00    683.00       4.979
  CC-2                  29.21    683.00    683.00       3.625
  JK-1                  11.62   1000.00   1000.00       1.899
  JK-2                   7.29   1000.00   1000.00       1.515
  WSC                   99.95    214.99    521.47       4.289
  -----------------------------------------------------------
  System                37.73   3580.99   3863.33      16.306
  
  
  ********************
  Link Flow Summary
  ********************
  
  -----------------------------------------------------------------------------
                                 Maximum  Time of Max   Maximum    Max/    Max/
                                  |Flow|   Occurrence   |Veloc|    Full    Full
  Link                 Type          LPS  days hr:min     m/sec    Flow   Depth
  -----------------------------------------------------------------------------
  1                    CONDUIT    521.47     0  02:16      2.78    0.18    0.29
  WS02003060WS02003069 CONDUIT    524.43     0  02:14      1.62    0.21    0.33
  WS02003066WSF200     CONDUIT    506.97     0  02:13      2.81    0.09    0.22
  WS02003067WS02003066 CONDUIT    506.79     0  02:13      1.17    0.16    0.41
  WS02003069WS02003072 CONDUIT    523.19     0  02:15      1.35    0.25    0.38
  WS02003072WS02003073 CONDUIT    521.76     0  02:15      1.40    1.13    0.36
  WS02004401WS02004402 CONDUIT    528.12     0  02:10      1.07    0.63    0.87
  WS02004402WS02004403 CONDUIT    530.56     0  03:18      1.08    0.76    0.90
  WS02004403WS02004404 CONDUIT    537.78     0  02:41      1.06    0.39    0.95
  WS02004404WS02004405 CONDUIT    583.40     0  02:10      1.23    5.72    0.97
  WS02004405WS02004406 CONDUIT    530.36     0  02:11      1.20    1.05    0.95
  WS02004406WS02004407 CONDUIT    526.48     0  02:11      1.03    0.24    0.62
  WS02004407WS02004409 CONDUIT    525.50     0  02:11      1.49    0.19    0.47
  WS02004409WS02004410 CONDUIT    520.20     0  02:12      0.97    0.67    0.65
  WS02004410WS02004411 CONDUIT    514.34     0  02:12      0.93    0.70    0.66
  WS02004411WS02004412 CONDUIT    511.16     0  02:12      0.91    0.73    0.67
  WS02004412WS02004413 CONDUIT    508.17     0  02:13      0.90    0.34    0.76
  WS02004413WS02003067 CONDUIT    506.33     0  02:13      1.07    0.22    0.58
  WS02006109WS02006110 CONDUIT    568.48     0  03:16      1.13    1.09    1.00
  WS02006110WS02006113 CONDUIT    579.78     0  03:16      1.39    0.53    0.79
  WS02006111WS02006112 CONDUIT    543.46     0  03:16      1.84    0.26    0.67
  WS02006112WS02006115 CONDUIT    559.66     0  03:16      0.79    0.33    0.87
  WS02006113WS02006111 CONDUIT    561.49     0  03:16      2.46    0.67    0.46
  WS02006115WS02006116 CONDUIT    542.47     0  03:17      1.11    0.70    0.77
  WS02006116WS02004401 CONDUIT    536.08     0  03:18      1.07    0.74    0.85
  WS02006228WS02006109 CONDUIT    564.11     0  03:16      1.12    2.46    1.00
  WS02006229WS02006228 CONDUIT    559.50     0  03:16      1.11    1.85    1.00
  WS02006230WS02006229 CONDUIT    558.31     0  03:16      1.45   12.42    1.00
  WS02006231WS02006230 CONDUIT    581.16     0  02:35      1.58    8.82    1.00
  WS02006232WS02006231 CONDUIT    572.57     0  02:35      1.51    1.20    1.00
  WS02006234WS02006232 CONDUIT    570.59     0  02:35      1.48    1.15    1.00
  WS02006235WS02006234 CONDUIT    565.13     0  02:35      1.47    5.96    1.00
  WS02006238WS02006235 CONDUIT    422.09     0  02:10      1.45    0.94    1.00
  WS02006239WS02006238 CONDUIT    421.57     0  02:10      1.10    1.35    1.00
  WS02006240WS02006239 CONDUIT    421.48     0  02:10      1.24    1.33    1.00
  WS02006242WS02006240 CONDUIT    419.69     0  02:10      1.13    1.67    1.00
  WS02006243WS02006242 CONDUIT    419.41     0  02:10      1.40    0.90    1.00
  WS02006245WS02006243 CONDUIT    418.56     0  02:10      1.45    1.24    1.00
  WS02006247WS02006245 CONDUIT    418.17     0  02:10      1.43    3.32    1.00
  WS02006248WS02006247 CONDUIT    417.81     0  03:21      1.44    0.91    1.00
  WS02006249WS02006248 CONDUIT    417.30     0  03:21      1.36    2.29    1.00
  WS02006251WS02006249 CONDUIT    459.52     0  02:35      1.99    1.33    1.00
  WS02006252WS02006251 CONDUIT    420.38     0  02:35     25.69    1.54    1.00
  WS02006256WS02006235 CONDUIT    288.91     0  00:00      4.23    3.06    1.00
  WSF200WS02003060     CONDUIT    507.87     0  02:43      2.03    0.11    0.27
  YS02001580YS02001583 CONDUIT    133.77     0  01:53      0.71    0.52    1.00
  YS02001583YS02001586 CONDUIT    165.07     0  01:53      0.71    0.25    1.00
  YS02001586YS02001590 CONDUIT    318.38     0  02:03      1.25    0.56    1.00
  YS02001590YS02001593 CONDUIT    318.18     0  02:03      1.13    2.00    1.00
  YS02001593YS02001596 CONDUIT    318.03     0  02:11      1.75    0.50    1.00
  YS02001596YS02001600 CONDUIT    318.04     0  02:24      1.25    0.62    1.00
  YS02001600YS02001601 CONDUIT    318.14     0  02:03      1.13    0.55    1.00
  YS02001601YS02001602 CONDUIT    525.11     0  01:53      1.86    1.90    1.00
  YS02001602YS02001605 CONDUIT    525.14     0  01:53      1.86   11.11    1.00
  YS02001605YS02001607 CONDUIT    524.72     0  01:53      1.86    2.88    1.00
  YS02001607YS02001610 CONDUIT    534.72     0  01:52      0.68    0.51    1.00
  YS02001610YS02001613 CONDUIT    540.83     0  02:04      0.69    0.62    1.00
  YS02001613YS02001616 CONDUIT    541.49     0  02:03      0.69    0.46    1.00
  YS02001616YS02001619 CONDUIT    541.09     0  02:03      0.69    0.94    1.00
  YS02001619YS02001622 CONDUIT   1022.50     0  02:02      1.30    1.51    1.00
  YS02001622YS02001625 CONDUIT   1022.80     0  02:02      1.30    0.55    1.00
  YS02001625YS02001629 CONDUIT    929.05     0  01:55      1.19    0.44    1.00
  YS02001629YS02163301 CONDUIT    926.97     0  01:55      1.18    1.14    1.00
  YS02001633YS02163601 CONDUIT   1395.19     0  01:55      1.78    1.46    1.00
  YS02001641YS02001644 CONDUIT   1395.33     0  01:55      1.78    4.51    1.00
  YS02001644YS02001647 CONDUIT   1827.02     0  01:55      2.33    1.07    1.00
  YS02001647YS02001649 CONDUIT   1833.24     0  01:56      2.37    0.97    1.00
  YS02001649YS02001757 CONDUIT   2101.00     0  01:56      2.68    1.27    1.00
  YS02001652YS02001649 CONDUIT   1084.90     0  02:02      1.38    0.54    1.00
  YS02001655YS02001652 CONDUIT   1084.98     0  02:01      1.38    0.53    1.00
  YS02001658YS02001655 CONDUIT   1085.11     0  02:02      1.94    0.46    1.00
  YS02001661YS02001658 CONDUIT   1084.96     0  02:02      2.36    0.43    1.00
  YS02001664YS02001661 CONDUIT   1084.40     0  02:01      2.40    0.34    0.86
  YS02001745YS02001748 CONDUIT    695.27     0  02:02      2.26    0.27    0.98
  YS02001748YS02001751 CONDUIT    695.30     0  02:02      1.77    0.35    1.00
  YS02001751YS02001754 CONDUIT    695.74     0  02:02      1.46    0.34    1.00
  YS02001754YS02001757 CONDUIT    695.52     0  02:02      0.89    0.28    1.00
  YS02001757CaochengTiaoxuchi CONDUIT   3587.03     0  02:00      4.60    1.55    1.00
  YS02001759YS02001757 CONDUIT   1501.72     0  02:01      1.91    1.07    1.00
  YS02001762YS02001759 CONDUIT    818.52     0  01:58      1.04    0.94    1.00
  YS02001765YS02001762 CONDUIT    818.92     0  01:58      1.04    0.77    1.00
  YS02001767YS02001765 CONDUIT    819.02     0  01:58      1.04    1.03    1.00
  YS02001770YS02001767 CONDUIT    818.90     0  01:58      1.04    3.24    1.00
  YS02001774YS02001770 CONDUIT    811.45     0  02:02      1.03    0.52    1.00
  YS02001779YS02001774 CONDUIT    811.80     0  02:02      1.03    0.41    1.00
  YS02001783YS02001784 CONDUIT   1170.07     0  02:00      2.33    1.61    1.00
  YS02001784YS02001785 CONDUIT   1171.01     0  02:00      2.33    2.73    1.00
  YS02001786YS02001788 CONDUIT   1171.08     0  01:59      2.49    2.26    0.89
  YS02001788YS02001790 CONDUIT   1179.45     0  02:00      2.72    0.87    0.84
  YS02001790YS02001791 CONDUIT   1280.48     0  02:00      3.42    1.39    0.71
  YS02001791YS02001793 CONDUIT   1241.54     0  02:01      6.76    0.53    0.41
  YS02001793JiankangQianchi CONDUIT   1289.59     0  02:00      2.58    0.10    0.61
  YS02001882YS02001884 CONDUIT     72.80     0  01:54      0.13    0.08    1.00
  YS02001884YS02001887 CONDUIT     82.84     0  01:54      0.11    0.11    1.00
  YS02001887YS02001890 CONDUIT   1028.77     0  02:01      1.31    1.76    1.00
  YS02001890YS02001895 CONDUIT    518.68     0  02:03      0.66    0.24    1.00
  YS02001895YS02001898 CONDUIT    517.61     0  02:07      0.66    0.90    1.00
  YS02001898YS02001901 CONDUIT    517.85     0  02:05      0.66    0.33    1.00
  YS02001901YS02001904 CONDUIT    517.75     0  02:05      0.66    0.80    1.00
  YS02001904YS02001907 CONDUIT    518.02     0  02:03      0.66    0.18    1.00
  YS02001907YS02006553 CONDUIT    799.73     0  02:20      0.89    0.94    1.00
  YS02001910YS02001907 CONDUIT   1726.72     0  02:02      2.20    0.97    1.00
  YS02001915YS02001910 CONDUIT   1726.10     0  02:02      2.20    0.86    1.00
  YS02001918YS02001915 CONDUIT    570.36     0  02:02      0.73    0.31    1.00
  YS02001920YS02001918 CONDUIT    569.67     0  02:02      0.73    0.55    1.00
  YS02001923YS02001920 CONDUIT    565.76     0  02:02      0.72    0.25    1.00
  YS02001926YS02001923 CONDUIT    565.87     0  02:02      0.96    0.81    1.00
  YS02001929YS02001926 CONDUIT    565.81     0  02:02      1.14    0.27    1.00
  YS02006553YS02006556 CONDUIT    800.14     0  02:20      1.02    0.68    1.00
  YS02006556YS02006558 CONDUIT    801.26     0  02:20      1.02    0.63    1.00
  YS02006558YS02006561 CONDUIT   1174.13     0  01:56      4.15    2.60    1.00
  YS02006561YS02001783 CONDUIT   1169.95     0  02:00      2.33    0.61    1.00
  YS02163301YS02001633 CONDUIT    926.06     0  01:55      1.18    0.87    1.00
  YS02163601YS02164001 CONDUIT   1395.82     0  01:55      1.78    1.24    1.00
  YS02164001YS02001641 CONDUIT   1396.36     0  01:55      1.78    1.91    1.00
  CC-R1                PUMP       683.00     0  00:00              1.00
  CC-R2                PUMP       683.00     0  00:00              1.00
  CC-S1                PUMP       200.00     0  00:00              1.00
  CC-S2                PUMP       200.00     0  00:00              1.00
  JK-R1                PUMP      1000.00     0  00:00              1.00
  JK-R2                PUMP      1000.00     0  00:00              1.00
  JK-S                 PUMP       300.00     0  00:00              1.00
  
  
  ***************************
  Flow Classification Summary
  ***************************
  
  -------------------------------------------------------------------------------------
                      Adjusted    ---------- Fraction of Time in Flow Class ---------- 
                       /Actual         Up    Down  Sub   Sup   Up    Down  Norm  Inlet 
  Conduit               Length    Dry  Dry   Dry   Crit  Crit  Crit  Crit  Ltd   Ctrl  
  -------------------------------------------------------------------------------------
  1                       1.00   0.00  0.00  0.00  0.00  1.00  0.00  0.00  0.30  0.00
  WS02003060WS02003069    1.00   0.00  0.00  0.00  0.97  0.03  0.00  0.00  0.74  0.00
  WS02003066WSF200        1.00   0.06  0.00  0.00  0.00  0.94  0.00  0.00  0.89  0.00
  WS02003067WS02003066    1.00   0.06  0.01  0.00  0.94  0.00  0.00  0.00  0.00  0.00
  WS02003069WS02003072    1.00   0.00  0.00  0.00  0.99  0.01  0.00  0.00  0.78  0.00
  WS02003072WS02003073    1.00   0.00  0.00  0.00  0.00  0.00  0.00  1.00  0.00  0.00
  WS02004401WS02004402    1.00   0.02  0.00  0.00  0.98  0.00  0.00  0.00  0.00  0.00
  WS02004402WS02004403    1.00   0.02  0.00  0.00  0.97  0.00  0.00  0.00  0.00  0.00
  WS02004403WS02004404    1.00   0.00  0.03  0.00  0.97  0.00  0.00  0.00  0.00  0.00
  WS02004404WS02004405    1.00   0.00  0.00  0.00  1.00  0.00  0.00  0.00  0.01  0.00
  WS02004405WS02004406    1.00   0.00  0.00  0.00  1.00  0.00  0.00  0.00  0.00  0.00
  WS02004406WS02004407    1.00   0.00  0.04  0.00  0.96  0.00  0.00  0.00  0.00  0.00
  WS02004407WS02004409    1.00   0.04  0.00  0.00  0.95  0.01  0.00  0.00  0.96  0.00
  WS02004409WS02004410    1.00   0.04  0.00  0.00  0.96  0.00  0.00  0.00  0.00  0.00
  WS02004410WS02004411    1.00   0.04  0.00  0.00  0.96  0.00  0.00  0.00  0.00  0.00
  WS02004411WS02004412    1.00   0.04  0.00  0.00  0.96  0.00  0.00  0.00  0.00  0.00
  WS02004412WS02004413    1.00   0.04  0.00  0.00  0.95  0.00  0.00  0.00  0.00  0.00
  WS02004413WS02003067    1.00   0.04  0.01  0.00  0.00  0.00  0.94  0.00  0.00  0.00
  WS02006109WS02006110    1.00   0.00  0.01  0.00  0.98  0.00  0.01  0.00  0.00  0.00
  WS02006110WS02006113    1.00   0.01  0.01  0.00  0.98  0.00  0.00  0.00  0.00  0.00
  WS02006111WS02006112    1.00   0.02  0.00  0.00  0.98  0.00  0.00  0.00  0.98  0.00
  WS02006112WS02006115    1.00   0.02  0.00  0.00  0.97  0.00  0.00  0.00  0.00  0.00
  WS02006113WS02006111    1.00   0.02  0.00  0.00  0.00  0.98  0.00  0.00  0.12  0.00
  WS02006115WS02006116    1.00   0.02  0.00  0.00  0.97  0.00  0.00  0.01  0.00  0.00
  WS02006116WS02004401    1.00   0.02  0.00  0.00  0.98  0.00  0.00  0.00  0.00  0.00
  WS02006228WS02006109    1.00   0.00  0.00  0.00  1.00  0.00  0.00  0.00  0.01  0.00
  WS02006229WS02006228    1.00   0.00  0.00  0.00  0.99  0.00  0.00  0.01  0.00  0.00
  WS02006230WS02006229    1.00   0.00  0.00  0.00  0.99  0.00  0.00  0.01  0.04  0.00
  WS02006231WS02006230    1.00   0.00  0.00  0.00  0.21  0.00  0.79  0.00  0.00  0.00
  WS02006232WS02006231    1.00   0.00  0.00  0.00  0.99  0.00  0.01  0.00  0.00  0.00
  WS02006234WS02006232    1.00   0.00  0.00  0.00  1.00  0.00  0.00  0.00  0.06  0.00
  WS02006235WS02006234    1.00   0.00  0.00  0.00  0.87  0.00  0.13  0.00  0.00  0.00
  WS02006238WS02006235    1.00   0.00  0.00  0.00  1.00  0.00  0.00  0.00  0.00  0.00
  WS02006239WS02006238    1.00   0.00  0.00  0.00  1.00  0.00  0.00  0.00  0.22  0.00
  WS02006240WS02006239    1.00   0.00  0.00  0.00  0.62  0.00  0.00  0.38  0.03  0.00
  WS02006242WS02006240    1.00   0.00  0.00  0.00  0.99  0.00  0.01  0.00  0.00  0.00
  WS02006243WS02006242    1.00   0.00  0.00  0.00  0.99  0.00  0.00  0.01  0.63  0.00
  WS02006245WS02006243    1.00   0.00  0.00  0.00  0.77  0.00  0.00  0.23  0.01  0.00
  WS02006247WS02006245    1.00   0.00  0.00  0.00  0.97  0.00  0.00  0.03  0.00  0.00
  WS02006248WS02006247    1.00   0.00  0.00  0.00  0.98  0.00  0.00  0.01  0.53  0.00
  WS02006249WS02006248    1.00   0.00  0.00  0.00  0.40  0.00  0.60  0.00  0.00  0.00
  WS02006251WS02006249    1.00   0.00  0.00  0.00  0.99  0.01  0.00  0.00  0.60  0.00
  WS02006252WS02006251    1.00   0.00  0.44  0.00  0.03  0.00  0.53  0.00  0.00  0.00
  WS02006256WS02006235    1.00   0.00  0.00  0.00  0.98  0.02  0.00  0.00  0.00  0.00
  WSF200WS02003060        1.00   0.00  0.06  0.00  0.47  0.46  0.00  0.00  0.64  0.00
  YS02001580YS02001583    1.00   0.23  0.57  0.00  0.20  0.00  0.00  0.00  0.66  0.00
  YS02001583YS02001586    1.00   0.42  0.33  0.00  0.25  0.00  0.00  0.00  0.66  0.00
  YS02001586YS02001590    1.00   0.13  0.00  0.00  0.43  0.04  0.00  0.40  0.36  0.00
  YS02001590YS02001593    1.00   0.13  0.01  0.00  0.12  0.00  0.74  0.00  0.00  0.00
  YS02001593YS02001596    1.00   0.13  0.00  0.00  0.14  0.01  0.00  0.72  0.02  0.00
  YS02001596YS02001600    1.00   0.14  0.00  0.00  0.20  0.01  0.00  0.65  0.04  0.00
  YS02001600YS02001601    1.00   0.13  0.01  0.00  0.86  0.00  0.00  0.00  0.60  0.00
  YS02001601YS02001602    1.00   0.13  0.01  0.00  0.87  0.00  0.00  0.00  0.00  0.00
  YS02001602YS02001605    1.00   0.14  0.00  0.00  0.86  0.00  0.00  0.00  0.00  0.00
  YS02001605YS02001607    1.00   0.14  0.00  0.00  0.86  0.00  0.00  0.00  0.00  0.00
  YS02001607YS02001610    1.00   0.13  0.01  0.00  0.86  0.00  0.00  0.00  0.01  0.00
  YS02001610YS02001613    1.00   0.13  0.00  0.00  0.87  0.00  0.00  0.00  0.00  0.00
  YS02001613YS02001616    1.00   0.13  0.00  0.00  0.87  0.00  0.00  0.00  0.00  0.00
  YS02001616YS02001619    1.00   0.13  0.00  0.00  0.87  0.00  0.00  0.00  0.00  0.00
  YS02001619YS02001622    1.00   0.13  0.00  0.00  0.87  0.00  0.00  0.00  0.28  0.00
  YS02001622YS02001625    1.00   0.13  0.00  0.00  0.87  0.00  0.00  0.00  0.04  0.00
  YS02001625YS02001629    1.00   0.13  0.05  0.00  0.16  0.00  0.66  0.00  0.00  0.00
  YS02001629YS02163301    1.00   0.15  0.01  0.00  0.84  0.00  0.00  0.00  0.00  0.00
  YS02001633YS02163601    1.00   0.00  0.01  0.00  0.99  0.00  0.00  0.00  0.15  0.00
  YS02001641YS02001644    1.00   0.00  0.01  0.00  0.99  0.00  0.00  0.00  0.00  0.00
  YS02001644YS02001647    1.00   0.00  0.17  0.00  0.83  0.00  0.00  0.00  0.00  0.00
  YS02001647YS02001649    1.00   0.00  0.17  0.00  0.57  0.26  0.00  0.00  0.57  0.00
  YS02001649YS02001757    1.00   0.00  0.00  0.00  0.72  0.28  0.00  0.00  0.44  0.00
  YS02001652YS02001649    1.00   0.00  0.00  0.00  0.96  0.03  0.00  0.00  0.74  0.00
  YS02001655YS02001652    1.00   0.00  0.00  0.00  0.20  0.01  0.00  0.80  0.06  0.00
  YS02001658YS02001655    1.00   0.00  0.14  0.00  0.67  0.19  0.00  0.00  0.68  0.00
  YS02001661YS02001658    1.00   0.14  0.00  0.00  0.50  0.35  0.00  0.00  0.69  0.00
  YS02001664YS02001661    1.00   0.13  0.00  0.00  0.78  0.10  0.00  0.00  0.85  0.00
  YS02001745YS02001748    1.00   0.00  0.00  0.00  0.10  0.01  0.00  0.89  0.05  0.00
  YS02001748YS02001751    1.00   0.00  0.00  0.00  0.83  0.17  0.00  0.00  0.77  0.00
  YS02001751YS02001754    1.00   0.00  0.00  0.00  0.18  0.01  0.00  0.82  0.04  0.00
  YS02001754YS02001757    1.00   0.00  0.00  0.00  1.00  0.00  0.00  0.00  0.80  0.00
  YS02001757CaochengTiaoxuchi    1.00   0.00  0.00  0.00  0.96  0.04  0.00  0.00  0.77  0.00
  YS02001759YS02001757    1.00   0.00  0.00  0.00  1.00  0.00  0.00  0.00  0.61  0.00
  YS02001762YS02001759    1.00   0.00  0.00  0.00  1.00  0.00  0.00  0.00  0.04  0.00
  YS02001765YS02001762    1.00   0.00  0.00  0.00  1.00  0.00  0.00  0.00  0.72  0.00
  YS02001767YS02001765    1.00   0.00  0.00  0.00  1.00  0.00  0.00  0.00  0.00  0.00
  YS02001770YS02001767    1.00   0.00  0.00  0.00  1.00  0.00  0.00  0.00  0.00  0.00
  YS02001774YS02001770    1.00   0.00  0.13  0.00  0.70  0.00  0.17  0.00  0.03  0.00
  YS02001779YS02001774    1.00   0.00  0.00  0.00  1.00  0.00  0.00  0.00  0.76  0.00
  YS02001783YS02001784    1.00   0.00  0.18  0.00  0.82  0.00  0.00  0.00  0.56  0.00
  YS02001784YS02001785    1.00   0.00  0.00  0.00  1.00  0.00  0.00  0.00  0.17  0.00
  YS02001786YS02001788    1.00   0.00  0.00  0.00  0.80  0.20  0.00  0.00  0.00  0.00
  YS02001788YS02001790    1.00   0.00  0.00  0.00  0.21  0.79  0.00  0.00  0.81  0.00
  YS02001790YS02001791    1.00   0.00  0.00  0.00  0.01  0.99  0.00  0.00  0.16  0.00
  YS02001791YS02001793    1.00   0.00  0.00  0.00  0.00  1.00  0.00  0.00  0.01  0.00
  YS02001793JiankangQianchi    1.00   0.00  0.00  0.00  0.95  0.05  0.00  0.00  0.99  0.00
  YS02001882YS02001884    1.00   0.15  0.01  0.00  0.84  0.00  0.00  0.00  0.00  0.00
  YS02001884YS02001887    1.00   0.06  0.05  0.00  0.89  0.00  0.00  0.00  0.00  0.00
  YS02001887YS02001890    1.00   0.00  0.00  0.00  0.97  0.00  0.03  0.00  0.00  0.00
  YS02001890YS02001895    1.00   0.00  0.16  0.00  0.83  0.00  0.00  0.00  0.00  0.00
  YS02001895YS02001898    1.00   0.17  0.00  0.00  0.82  0.00  0.02  0.00  0.00  0.00
  YS02001898YS02001901    1.00   0.17  0.00  0.00  0.83  0.00  0.00  0.00  0.01  0.00
  YS02001901YS02001904    1.00   0.17  0.00  0.00  0.83  0.00  0.00  0.00  0.00  0.00
  YS02001904YS02001907    1.00   0.00  0.16  0.00  0.83  0.00  0.00  0.00  0.00  0.00
  YS02001907YS02006553    1.00   0.00  0.02  0.00  0.98  0.00  0.00  0.00  0.00  0.00
  YS02001910YS02001907    1.00   0.00  0.00  0.00  0.97  0.00  0.00  0.03  0.12  0.00
  YS02001915YS02001910    1.00   0.00  0.00  0.00  0.97  0.03  0.00  0.00  0.16  0.00
  YS02001918YS02001915    1.00   0.00  0.01  0.00  0.98  0.02  0.00  0.00  0.75  0.00
  YS02001920YS02001918    1.00   0.00  0.01  0.00  0.99  0.00  0.00  0.00  0.00  0.00
  YS02001923YS02001920    1.00   0.00  0.00  0.00  1.00  0.00  0.00  0.00  0.92  0.00
  YS02001926YS02001923    1.00   0.00  0.07  0.00  0.06  0.00  0.86  0.00  0.00  0.00
  YS02001929YS02001926    1.00   0.00  0.13  0.00  0.87  0.00  0.00  0.00  0.82  0.00
  YS02006553YS02006556    1.00   0.01  0.00  0.00  0.99  0.00  0.00  0.00  0.03  0.00
  YS02006556YS02006558    1.00   0.00  0.00  0.00  1.00  0.00  0.00  0.00  0.00  0.00
  YS02006558YS02006561    1.00   0.18  0.00  0.00  0.06  0.76  0.00  0.00  0.18  0.00
  YS02006561YS02001783    1.00   0.18  0.00  0.00  0.09  0.73  0.00  0.00  0.68  0.00
  YS02163301YS02001633    1.00   0.00  0.15  0.00  0.85  0.00  0.00  0.00  0.00  0.00
  YS02163601YS02164001    1.00   0.00  0.08  0.00  0.92  0.00  0.00  0.00  0.00  0.00
  YS02164001YS02001641    1.00   0.01  0.07  0.00  0.92  0.00  0.00  0.00  0.06  0.00
  
  
  *************************
  Conduit Surcharge Summary
  *************************
  
  ----------------------------------------------------------------------------
                                                           Hours        Hours 
                         --------- Hours Full --------   Above Full   Capacity
  Conduit                Both Ends  Upstream  Dnstream   Normal Flow   Limited
  ----------------------------------------------------------------------------
  WS02003072WS02003073        0.01      0.01      0.01      0.40         0.01
  WS02004404WS02004405        0.01      0.01      0.01      2.63         0.01
  WS02004405WS02004406        0.01      0.01      0.01      0.10         0.01
  WS02006109WS02006110        0.19      0.19      1.58      0.24         0.01
  WS02006110WS02006113        0.01      0.01      1.57      0.01         0.01
  WS02006111WS02006112        0.01      0.01      1.77      0.01         0.01
  WS02006112WS02006115        0.01      0.01      0.21      0.01         0.01
  WS02006228WS02006109        1.57      1.58      1.57      2.07         1.57
  WS02006229WS02006228        1.57      1.57      1.57      1.76         1.56
  WS02006230WS02006229        1.65      1.73      1.65      3.17         1.65
  WS02006231WS02006230        0.20      0.20      0.27      2.88         0.01
  WS02006232WS02006231        0.25      0.25      1.59      0.29         0.01
  WS02006234WS02006232        1.55      1.55      1.59      0.28         0.27
  WS02006235WS02006234        0.42      0.42      1.55      2.76         0.01
  WS02006238WS02006235        1.56      1.56      1.59      0.01         0.01
  WS02006239WS02006238        1.57      1.57      1.57      1.60         1.49
  WS02006240WS02006239        1.56      1.57      1.56      1.58         1.46
  WS02006242WS02006240        1.57      1.57      1.59      1.72         0.01
  WS02006243WS02006242        1.56      1.56      1.57      0.01         0.02
  WS02006245WS02006243        1.56      1.56      1.56      1.37         1.35
  WS02006247WS02006245        1.55      1.55      1.55      2.42         1.55
  WS02006248WS02006247        1.54      1.54      1.55      0.01         0.02
  WS02006249WS02006248        1.54      1.54      1.54      2.39         0.01
  WS02006251WS02006249        1.54      1.54      1.54      1.65         1.50
  WS02006252WS02006251        1.70      1.70      1.73      1.71         0.01
  WS02006256WS02006235        2.80      2.84      6.14      0.77         0.01
  YS02001580YS02001583        0.66      0.66      0.70      0.01         0.01
  YS02001583YS02001586        0.67      0.67      0.78      0.01         0.01
  YS02001586YS02001590        0.79      0.79      0.85      0.01         0.01
  YS02001590YS02001593        0.85      0.85      0.87      0.90         0.01
  YS02001593YS02001596        0.87      0.87      0.96      0.01         0.01
  YS02001596YS02001600        1.01      1.01      1.12      0.01         0.01
  YS02001600YS02001601        1.18      1.18      1.45      0.01         0.01
  YS02001601YS02001602        1.35      1.35      1.48      1.12         0.01
  YS02001602YS02001605        1.31      1.31      1.35      2.26         0.01
  YS02001605YS02001607        1.26      1.31      1.26      1.41         1.26
  YS02001607YS02001610        0.84      0.84      0.86      0.01         0.01
  YS02001610YS02001613        0.83      0.83      0.86      0.01         0.01
  YS02001613YS02001616        0.78      0.78      0.83      0.01         0.01
  YS02001616YS02001619        0.78      0.78      0.78      0.01         0.06
  YS02001619YS02001622        0.78      0.78      0.78      0.86         0.75
  YS02001622YS02001625        0.78      0.78      0.95      0.01         0.01
  YS02001625YS02001629        0.73      0.73      0.95      0.01         0.01
  YS02001629YS02163301        0.95      0.95      0.96      0.18         0.17
  YS02001633YS02163601        0.98      0.98      1.01      0.34         0.33
  YS02001641YS02001644        0.89      0.92      0.89      1.51         0.88
  YS02001644YS02001647        0.68      0.68      0.89      0.05         0.01
  YS02001647YS02001649        0.68      0.68      0.80      0.01         0.01
  YS02001649YS02001757        0.80      0.80      0.87      0.08         0.05
  YS02001652YS02001649        0.63      0.63      0.80      0.01         0.01
  YS02001655YS02001652        0.44      0.44      0.60      0.01         0.01
  YS02001658YS02001655        0.25      0.25      0.44      0.01         0.01
  YS02001661YS02001658        0.10      0.10      0.25      0.01         0.01
  YS02001664YS02001661        0.01      0.01      0.13      0.01         0.01
  YS02001745YS02001748        0.01      0.01      0.20      0.01         0.01
  YS02001748YS02001751        0.23      0.23      0.32      0.01         0.01
  YS02001751YS02001754        0.32      0.32      0.50      0.01         0.01
  YS02001754YS02001757        0.55      0.55      0.87      0.01         0.01
  YS02001757CaochengTiaoxuchi        0.79      0.87      1.46      0.41         0.29
  YS02001759YS02001757        0.77      0.77      0.87      0.07         0.08
  YS02001762YS02001759        0.74      0.74      0.77      0.01         0.02
  YS02001765YS02001762        0.69      0.69      0.74      0.01         0.01
  YS02001767YS02001765        0.66      0.66      0.69      0.01         0.02
  YS02001770YS02001767        0.65      0.65      0.66      0.57         0.48
  YS02001774YS02001770        0.63      0.63      0.72      0.01         0.01
  YS02001779YS02001774        0.49      0.49      0.72      0.01         0.01
  YS02001783YS02001784        0.55      0.57      0.55      0.71         0.55
  YS02001784YS02001785        0.44      0.55      0.44      0.94         0.44
  YS02001786YS02001788        0.01      0.44      0.01      0.81         0.01
  YS02001790YS02001791        0.01      0.01      0.01      0.53         0.01
  YS02001793JiankangQianchi        0.01      0.01      6.73      0.01         0.01
  YS02001882YS02001884        0.52      0.52      0.53      0.01         0.01
  YS02001884YS02001887        0.55      0.55      0.56      0.01         0.01
  YS02001887YS02001890        0.57      0.57      0.59      0.16         0.01
  YS02001890YS02001895        0.51      0.51      0.60      0.01         0.01
  YS02001895YS02001898        0.50      0.50      0.51      0.01         0.01
  YS02001898YS02001901        0.51      0.51      0.55      0.01         0.01
  YS02001901YS02001904        0.54      0.54      0.55      0.01         0.01
  YS02001904YS02001907        0.54      0.54      0.79      0.01         0.01
  YS02001907YS02006553        0.95      0.95      1.02      0.01         0.01
  YS02001910YS02001907        0.60      0.60      0.77      0.01         0.01
  YS02001915YS02001910        0.51      0.51      0.60      0.01         0.01
  YS02001918YS02001915        0.43      0.43      0.51      0.01         0.01
  YS02001920YS02001918        0.43      0.43      0.45      0.01         0.01
  YS02001923YS02001920        0.39      0.39      0.45      0.01         0.01
  YS02001926YS02001923        0.16      0.16      0.18      0.01         0.01
  YS02001929YS02001926        0.02      0.02      0.18      0.01         0.01
  YS02006553YS02006556        0.69      0.69      0.79      0.01         0.01
  YS02006556YS02006558        0.73      0.73      0.81      0.01         0.01
  YS02006558YS02006561        0.47      0.68      0.47      0.89         0.47
  YS02006561YS02001783        0.40      0.40      0.57      0.01         0.01
  YS02163301YS02001633        0.96      0.96      0.99      0.01         0.01
  YS02163601YS02164001        0.92      0.92      1.01      0.07         0.01
  YS02164001YS02001641        0.92      0.92      0.92      0.71         0.65
  
  
  ***************
  Pumping Summary
  ***************
  
  ---------------------------------------------------------------------------------------------------------
                                                  Min       Avg       Max     Total     Power    % Time Off
                        Percent   Number of      Flow      Flow      Flow    Volume     Usage    Pump Curve
  Pump                 Utilized   Start-Ups       LPS       LPS       LPS  10^6 ltr     Kw-hr    Low   High
  ---------------------------------------------------------------------------------------------------------
  CC-R1                   25.42          29      0.00    683.00    683.00     5.001     91.21    0.0   35.0
  CC-R2                   18.54          26      0.00    683.00    683.00     3.646     66.63    0.0   32.9
  CC-S1                   25.86          21      0.00    200.00    200.00     1.490      8.39    0.0    0.0
  CC-S2                   27.40          21      0.00    200.00    200.00     1.578      9.06    0.0    0.0
  JK-R1                    6.61          16      0.00   1000.00   1000.00     1.904     17.66    0.0    0.0
  JK-R2                    5.26          12      0.00   1000.00   1000.00     1.515     12.59    0.0    0.0
  JK-S                     9.25          27      0.00    300.00    300.00     0.799     14.20    0.0    0.0
  

  Analysis begun on:  Mon Dec 30 10:19:49 2024
  Analysis ended on:  Mon Dec 30 10:19:50 2024
  Total elapsed time: 00:00:01