
  EPA STORM WATER MANAGEMENT MODEL - VERSION 5.2 (Build 5.2.4)
  PYSWMM TOOLKIT API - VERSION v1.0 (2023-11-27)
  ------------------------------------------------------------

  WARNING 04: minimum elevation drop used for Conduit WS02004404WS02004405
  WARNING 03: negative offset ignored for Link YS02001904YS02001907
  
  ****************
  Analysis Options
  ****************
  Flow Units ............... LPS
  Process Models:
    Rainfall/Runoff ........ YES
    RDII ................... NO
    Snowmelt ............... NO
    Groundwater ............ NO
    Flow Routing ........... YES
    Ponding Allowed ........ NO
    Water Quality .......... NO
  Infiltration Method ...... HORTON
  Flow Routing Method ...... DYNWAVE
  Surcharge Method ......... EXTRAN
  Starting Date ............ 08/28/2015 08:00:00
  Ending Date .............. 08/28/2015 16:00:00
  Antecedent Dry Days ...... 8.0
  Report Time Step ......... 00:01:00
  Wet Time Step ............ 00:01:00
  Dry Time Step ............ 00:01:00
  Routing Time Step ........ 30.00 sec
  Variable Time Step ....... YES
  Maximum Trials ........... 8
  Number of Threads ........ 4
  Head Tolerance ........... 0.001500 m
  
  
  **************************        Volume         Depth
  Runoff Quantity Continuity     hectare-m            mm
  **************************     ---------       -------
  Total Precipitation ......         2.870        86.517
  Evaporation Loss .........         0.000         0.000
  Infiltration Loss ........         0.102         3.067
  Surface Runoff ...........         2.736        82.477
  Final Storage ............         0.033         0.995
  Continuity Error (%) .....        -0.025
  
  
  **************************        Volume        Volume
  Flow Routing Continuity        hectare-m      10^6 ltr
  **************************     ---------     ---------
  Dry Weather Inflow .......         0.025         0.251
  Wet Weather Inflow .......         2.735        27.352
  Groundwater Inflow .......         0.000         0.000
  RDII Inflow ..............         0.000         0.000
  External Inflow ..........         0.083         0.834
  External Outflow .........         1.881        18.810
  Flooding Loss ............         1.034        10.345
  Evaporation Loss .........         0.000         0.000
  Exfiltration Loss ........         0.000         0.000
  Initial Stored Volume ....         0.243         2.431
  Final Stored Volume ......         0.182         1.817
  Continuity Error (%) .....        -0.338
  
  
  *************************
  Highest Continuity Errors
  *************************
  Node YS02001583 (-11.66%)
  Node YS02001884 (5.15%)
  Node WS02006256 (-1.75%)
  
  
  ***************************
  Time-Step Critical Elements
  ***************************
  Link WS02006252WS02006251 (29.75%)
  Link WS02004404WS02004405 (20.64%)
  Link WS02006238WS02006235 (17.54%)
  Link YS02001791YS02001793 (9.88%)
  Link WS02006235WS02006234 (4.75%)
  
  
  ********************************
  Highest Flow Instability Indexes
  ********************************
  Link WS02006113WS02006111 (39)
  Link WS02006238WS02006235 (25)
  Link WS02006252WS02006251 (23)
  Link WS02006256WS02006235 (21)
  Link WS02004404WS02004405 (21)
  
  
  *********************************
  Most Frequent Nonconverging Nodes
  *********************************
  Node CC-1 (16.48%)
  Node CC-2 (16.48%)
  Node JK-1 (16.48%)
  Node JK-2 (16.48%)
  Node WSC (16.48%)
  
  
  *************************
  Routing Time Step Summary
  *************************
  Minimum Time Step           :     0.01 sec
  Average Time Step           :     2.50 sec
  Maximum Time Step           :     6.43 sec
  % of Time in Steady State   :     0.00
  Average Iterations per Step :     3.58
  % of Steps Not Converging   :    16.48
  Time Step Frequencies       :
     30.000 - 13.228 sec      :     0.00 %
     13.228 -  5.833 sec      :    12.38 %
      5.833 -  2.572 sec      :    22.94 %
      2.572 -  1.134 sec      :    29.60 %
      1.134 -  0.500 sec      :    35.09 %
  
  
  ***************************
  Subcatchment Runoff Summary
  ***************************
  
  ------------------------------------------------------------------------------------------------------------------------------
                            Total      Total      Total      Total     Imperv       Perv      Total       Total     Peak  Runoff
                           Precip      Runon       Evap      Infil     Runoff     Runoff     Runoff      Runoff   Runoff   Coeff
  Subcatchment                 mm         mm         mm         mm         mm         mm         mm    10^6 ltr      LPS
  ------------------------------------------------------------------------------------------------------------------------------
  sub60                     86.52       0.00       0.00       1.86      74.94       8.53      83.47        1.10   675.48   0.965
  sub61                     86.52       0.00       0.00       2.69      70.69      12.02      82.71        1.52   934.00   0.956
  sub62                     86.52       0.00       0.00       1.24      78.32       5.69      84.00        2.30  1316.88   0.971
  sub63                     86.52       0.00       0.00       4.94      60.46      20.16      80.62        1.83  1036.67   0.932
  sub64                     86.52       0.00       0.00       2.50      72.34      10.48      82.82        1.99  1069.32   0.957
  sub65                     86.52       0.00       0.00       2.17      74.02       9.09      83.11        2.29  1194.29   0.961
  sub66                     86.52       0.00       0.00       6.06      60.36      19.03      79.39        3.70  1553.89   0.918
  sub67                     86.52       0.00       0.00       1.19      78.36       5.73      84.09        1.56  1021.82   0.972
  sub68                     86.52       0.00       0.00       2.23      73.23       9.89      83.11        2.29  1350.73   0.961
  sub69                     86.52       0.00       0.00       1.99      73.43      10.99      84.43        3.13  1594.22   0.976
  sub70                     86.52       0.00       0.00       6.55      56.94      22.87      79.81        2.31   874.78   0.922
  sub71                     86.52       0.00       0.00       1.27      78.27       5.65      83.93        2.19  1159.20   0.970
  sub72                     86.52       0.00       0.00       1.13      79.06       4.93      83.99        1.15   559.26   0.971
  
  
  ******************
  Node Depth Summary
  ******************
  
  ---------------------------------------------------------------------------------
                                 Average  Maximum  Maximum  Time of Max    Reported
                                   Depth    Depth      HGL   Occurrence   Max Depth
  Node                 Type       Meters   Meters   Meters  days hr:min      Meters
  ---------------------------------------------------------------------------------
  WS02003060           JUNCTION     0.23     0.38     5.32     0  02:11        0.38
  WS02003066           JUNCTION     0.18     0.30     5.85     0  02:10        0.30
  WS02003067           JUNCTION     0.47     0.70     6.02     0  02:10        0.70
  WS02003069           JUNCTION     0.25     0.43     5.02     0  02:11        0.43
  WS02003072           JUNCTION     0.31     0.50     4.87     0  02:10        0.50
  WS02003073           JUNCTION     0.18     0.30     4.36     0  02:11        0.30
  WS02004401           JUNCTION     0.57     0.88     6.88     0  02:03        0.88
  WS02004402           JUNCTION     0.60     0.91     6.87     0  02:03        0.90
  WS02004403           JUNCTION     0.62     0.92     6.85     0  02:04        0.92
  WS02004404           JUNCTION     0.69     1.05     6.90     0  02:06        1.05
  WS02004405           JUNCTION     0.67     0.97     6.82     0  02:08        0.97
  WS02004406           JUNCTION     0.69     0.96     6.79     0  02:03        0.96
  WS02004407           JUNCTION     0.17     0.30     6.61     0  02:09        0.30
  WS02004409           JUNCTION     0.37     0.67     6.44     0  02:09        0.67
  WS02004410           JUNCTION     0.40     0.68     6.40     0  02:09        0.68
  WS02004411           JUNCTION     0.41     0.69     6.37     0  02:09        0.69
  WS02004412           JUNCTION     0.43     0.70     6.34     0  02:10        0.70
  WS02004413           JUNCTION     0.58     0.86     6.33     0  02:10        0.86
  WS02006109           JUNCTION     0.64     2.58     9.20     0  02:16        2.58
  WS02006110           JUNCTION     0.64     2.76     9.34     0  02:16        2.76
  WS02006111           JUNCTION     0.17     0.29     6.99     0  02:57        0.29
  WS02006112           JUNCTION     0.73     1.09     6.97     0  02:10        1.08
  WS02006113           JUNCTION     0.26     0.46     7.35     0  01:47        0.46
  WS02006115           JUNCTION     0.46     0.78     6.92     0  02:04        0.78
  WS02006116           JUNCTION     0.54     0.86     6.90     0  02:07        0.86
  WS02006228           JUNCTION     0.64     2.00     8.65     0  02:16        2.00
  WS02006229           JUNCTION     0.61     1.74     8.44     0  02:16        1.74
  WS02006230           JUNCTION     0.62     1.92     8.66     0  02:15        1.17
  WS02006231           JUNCTION     0.43     1.55     8.67     0  02:15        0.93
  WS02006232           JUNCTION     0.57     1.53     8.57     0  02:15        1.14
  WS02006234           JUNCTION     0.50     1.68     8.84     0  03:35        1.19
  WS02006235           JUNCTION     0.54     1.73     8.90     0  03:35        1.27
  WS02006238           JUNCTION     0.57     1.77     8.91     0  03:35        1.31
  WS02006239           JUNCTION     0.53     1.72     8.93     0  03:35        1.30
  WS02006240           JUNCTION     0.50     1.61     8.90     0  03:35        1.38
  WS02006242           JUNCTION     0.57     1.55     8.82     0  01:40        1.33
  WS02006243           JUNCTION     0.48     1.48     8.90     0  02:27        1.27
  WS02006245           JUNCTION     0.48     1.41     8.90     0  02:27        1.24
  WS02006247           JUNCTION     0.50     1.30     8.80     0  02:27        1.20
  WS02006248           JUNCTION     0.46     1.10     8.69     0  01:43        1.10
  WS02006249           JUNCTION     0.49     1.09     8.69     0  01:43        1.09
  WS02006251           JUNCTION     0.48     1.42     9.09     0  01:43        1.13
  WS02006252           JUNCTION     0.34     1.50     9.74     0  00:00        0.77
  WS02006256           JUNCTION     1.08     2.35     9.28     0  00:00        2.35
  WSF200               JUNCTION     0.16     0.29     5.52     0  02:10        0.29
  YS02001580           JUNCTION     0.14     1.05     9.59     0  01:33        0.83
  YS02001583           JUNCTION     0.18     1.14     9.64     0  01:33        0.85
  YS02001586           JUNCTION     0.27     1.13     9.30     0  01:32        1.13
  YS02001590           JUNCTION     0.38     1.40     9.26     0  01:32        1.40
  YS02001593           JUNCTION     0.31     1.37     9.23     0  01:47        1.37
  YS02001596           JUNCTION     0.42     1.73     9.14     0  02:00        1.73
  YS02001600           JUNCTION     0.50     1.87     9.00     0  01:32        1.87
  YS02001601           JUNCTION     0.69     2.06     8.90     0  01:32        2.06
  YS02001602           JUNCTION     0.59     1.87     8.77     0  01:32        1.87
  YS02001605           JUNCTION     0.55     1.78     8.68     0  01:33        1.78
  YS02001607           JUNCTION     0.53     1.68     8.53     0  01:47        1.68
  YS02001610           JUNCTION     0.57     1.68     8.48     0  01:33        1.68
  YS02001613           JUNCTION     0.53     1.70     8.54     0  01:46        1.70
  YS02001616           JUNCTION     0.47     1.61     8.52     0  01:33        1.61
  YS02001619           JUNCTION     0.45     1.61     8.54     0  01:33        1.61
  YS02001622           JUNCTION     0.44     1.62     8.52     0  01:33        1.60
  YS02001625           JUNCTION     0.68     1.78     8.38     0  01:33        1.78
  YS02001629           JUNCTION     0.57     1.85     8.40     0  01:33        1.85
  YS02001633           JUNCTION     0.65     2.04     8.50     0  01:35        2.03
  YS02001641           JUNCTION     0.62     1.98     8.41     0  02:15        1.96
  YS02001644           JUNCTION     0.61     1.92     8.35     0  01:35        1.92
  YS02001647           JUNCTION     0.41     1.81     8.42     0  01:36        1.78
  YS02001649           JUNCTION     0.47     2.05     8.44     0  01:36        2.05
  YS02001652           JUNCTION     0.36     2.13     8.73     0  01:36        1.91
  YS02001655           JUNCTION     0.28     2.20     9.05     0  02:15        1.73
  YS02001658           JUNCTION     0.20     2.12     9.26     0  01:36        1.51
  YS02001661           JUNCTION     0.19     2.07     9.47     0  01:36        1.32
  YS02001664           JUNCTION     0.08     1.66     9.59     0  01:36        0.89
  YS02001745           JUNCTION     0.10     1.99     9.51     0  01:36        0.82
  YS02001748           JUNCTION     0.19     2.27     9.35     0  01:36        1.26
  YS02001751           JUNCTION     0.24     2.20     9.08     0  01:36        1.45
  YS02001754           JUNCTION     0.32     2.20     8.81     0  01:36        1.71
  YS02001757           JUNCTION     0.49     2.21     8.47     0  01:36        2.04
  YS02001759           JUNCTION     0.43     2.21     8.57     0  01:36        2.05
  YS02001762           JUNCTION     0.43     2.15     8.55     0  01:36        2.02
  YS02001765           JUNCTION     0.41     2.10     8.55     0  01:36        1.98
  YS02001767           JUNCTION     0.40     2.03     8.52     0  01:36        1.96
  YS02001770           JUNCTION     0.41     1.95     8.44     0  01:35        1.95
  YS02001774           JUNCTION     0.47     2.05     8.47     0  01:35        2.00
  YS02001779           JUNCTION     0.30     1.68     8.37     0  01:35        1.68
  YS02001783           JUNCTION     0.30     1.36     7.50     0  01:34        1.33
  YS02001784           JUNCTION     0.31     1.23     7.30     0  01:34        1.18
  YS02001786           JUNCTION     0.26     0.96     6.99     0  01:34        0.88
  YS02001788           JUNCTION     0.18     0.62     6.60     0  01:36        0.62
  YS02001790           JUNCTION     0.22     0.73     6.37     0  01:43        0.72
  YS02001791           JUNCTION     0.14     0.44     5.91     0  01:39        0.43
  YS02001793           JUNCTION     0.07     0.30     5.14     0  01:59        0.29
  YS02001882           JUNCTION     0.38     1.83     8.55     0  01:33        1.67
  YS02001884           JUNCTION     0.46     1.90     8.52     0  01:33        1.76
  YS02001887           JUNCTION     0.53     1.91     8.44     0  01:33        1.84
  YS02001890           JUNCTION     0.56     1.81     8.32     0  01:33        1.81
  YS02001895           JUNCTION     0.35     1.75     8.50     0  01:34        1.75
  YS02001898           JUNCTION     0.35     1.77     8.51     0  01:34        1.77
  YS02001901           JUNCTION     0.46     1.87     8.48     0  01:34        1.87
  YS02001904           JUNCTION     0.44     1.85     8.48     0  01:34        1.85
  YS02001907           JUNCTION     0.74     1.96     8.25     0  01:34        1.96
  YS02001910           JUNCTION     0.56     2.01     8.51     0  01:46        2.00
  YS02001915           JUNCTION     0.39     2.00     8.72     0  01:33        1.98
  YS02001918           JUNCTION     0.23     1.81     8.88     0  01:35        1.68
  YS02001920           JUNCTION     0.31     2.14     9.15     0  01:35        1.73
  YS02001923           JUNCTION     0.18     2.03     9.29     0  01:35        1.44
  YS02001926           JUNCTION     0.21     1.90     9.35     0  01:35        1.32
  YS02001929           JUNCTION     0.13     1.78     9.47     0  01:35        1.06
  YS02006553           JUNCTION     0.74     2.19     8.47     0  01:34        2.19
  YS02006556           JUNCTION     0.72     2.39     8.70     0  01:34        2.39
  YS02006558           JUNCTION     0.76     2.42     8.68     0  01:34        2.42
  YS02006561           JUNCTION     0.19     1.10     7.76     0  01:34        0.92
  YS02163301           JUNCTION     0.59     1.94     8.46     0  01:39        1.94
  YS02163601           JUNCTION     0.68     2.08     8.48     0  02:15        2.02
  YS02164001           JUNCTION     0.61     2.10     8.56     0  01:46        2.10
  CC-1                 OUTFALL      0.00     0.00     0.00     0  00:00        0.00
  CC-2                 OUTFALL      0.00     0.00     0.00     0  00:00        0.00
  JK-1                 OUTFALL      0.00     0.00     0.00     0  00:00        0.00
  JK-2                 OUTFALL      0.00     0.00     0.00     0  00:00        0.00
  WSC                  OUTFALL      0.18     0.30     0.97     0  02:11        0.30
  CC-storage           STORAGE      0.86     1.71     7.21     0  02:22        1.71
  JK-storage           STORAGE      1.66     4.25     5.05     0  01:39        4.23
  
  
  *******************
  Node Inflow Summary
  *******************
  
  -------------------------------------------------------------------------------------------------
                                  Maximum  Maximum                  Lateral       Total        Flow
                                  Lateral    Total  Time of Max      Inflow      Inflow     Balance
                                   Inflow   Inflow   Occurrence      Volume      Volume       Error
  Node                 Type           LPS      LPS  days hr:min    10^6 ltr    10^6 ltr     Percent
  -------------------------------------------------------------------------------------------------
  WS02003060           JUNCTION     16.53   556.79     0  02:11       0.476        5.03       0.042
  WS02003066           JUNCTION      0.00   540.08     0  02:10           0        4.56       0.030
  WS02003067           JUNCTION      0.00   540.03     0  02:10           0        4.56       0.089
  WS02003069           JUNCTION      0.32   556.94     0  02:11     0.00922        5.04       0.075
  WS02003072           JUNCTION      0.00   556.66     0  02:12           0        5.04       0.135
  WS02003073           JUNCTION      1.82   558.41     0  02:10      0.0524        5.08       0.107
  WS02004401           JUNCTION      0.00   540.72     0  02:05           0        4.66       0.216
  WS02004402           JUNCTION      0.00   540.65     0  02:03           0        4.65       0.220
  WS02004403           JUNCTION      0.00   542.60     0  02:03           0        4.64       0.212
  WS02004404           JUNCTION      0.16   563.41     0  02:04     0.00467        4.63       0.114
  WS02004405           JUNCTION      0.04   608.55     0  02:08      0.0011        4.63       0.199
  WS02004406           JUNCTION      0.00   548.03     0  02:03           0        4.62       0.445
  WS02004407           JUNCTION      0.00   541.10     0  02:08           0         4.6       0.021
  WS02004409           JUNCTION      0.00   540.77     0  02:09           0         4.6       0.052
  WS02004410           JUNCTION      0.00   540.55     0  02:09           0        4.59       0.092
  WS02004411           JUNCTION      0.00   540.29     0  02:09           0        4.59       0.117
  WS02004412           JUNCTION      0.00   540.28     0  02:10           0        4.58       0.158
  WS02004413           JUNCTION      0.00   540.16     0  02:10           0        4.58       0.290
  WS02006109           JUNCTION      1.23   562.54     0  02:15      0.0354         4.7       0.153
  WS02006110           JUNCTION      0.00   562.82     0  02:15           0        4.69       0.150
  WS02006111           JUNCTION      0.00   561.25     0  03:18           0        4.69       0.023
  WS02006112           JUNCTION      0.00   542.70     0  02:57           0        4.68       0.400
  WS02006113           JUNCTION      0.00   582.01     0  02:16           0        4.69       0.040
  WS02006115           JUNCTION      0.00   551.62     0  03:16           0        4.67       0.142
  WS02006116           JUNCTION      0.00   539.18     0  02:00           0        4.66       0.068
  WS02006228           JUNCTION      0.00   560.98     0  02:15           0        4.67       0.063
  WS02006229           JUNCTION      0.00   560.91     0  02:15           0        4.68       0.124
  WS02006230           JUNCTION     10.28   599.96     0  02:27       0.296        4.68       0.119
  WS02006231           JUNCTION      0.00   580.18     0  03:05           0        4.39       0.004
  WS02006232           JUNCTION      0.00   579.28     0  03:05           0        4.39       0.217
  WS02006234           JUNCTION      0.00   573.48     0  03:05           0        4.38      -0.344
  WS02006235           JUNCTION      0.00   564.27     0  03:05           0        4.48       0.373
  WS02006238           JUNCTION      0.00   426.21     0  02:40           0        3.37      -0.200
  WS02006239           JUNCTION      0.00   424.19     0  02:40           0        3.31      -0.161
  WS02006240           JUNCTION      0.00   420.60     0  02:40           0        3.27      -0.040
  WS02006242           JUNCTION      0.00   421.22     0  02:40           0        3.27       0.033
  WS02006243           JUNCTION      0.00   420.47     0  02:40           0        3.26      -0.134
  WS02006245           JUNCTION      0.00   421.14     0  02:40           0        3.27       0.425
  WS02006247           JUNCTION      0.00   420.95     0  02:40           0        3.27      -0.042
  WS02006248           JUNCTION      0.00   420.68     0  02:40           0        3.27      -0.068
  WS02006249           JUNCTION      0.00   490.64     0  01:35           0        3.57       0.498
  WS02006251           JUNCTION      0.08   408.49     0  01:43     0.00222        3.57       0.067
  WS02006252           JUNCTION      0.00   400.00     0  00:00           0        3.55      -0.405
  WS02006256           JUNCTION      0.00   300.00     0  00:00           0        1.64      -1.721
  WSF200               JUNCTION      0.00   540.12     0  02:10           0        4.56       0.009
  YS02001580           JUNCTION      0.00   154.25     0  01:32           0     0.00428      -4.613
  YS02001583           JUNCTION      0.00   268.63     0  01:33           0      0.0147     -10.445
  YS02001586           JUNCTION    874.78   874.78     0  01:42        2.31        2.32       0.074
  YS02001590           JUNCTION      0.00   318.96     0  01:46           0        1.62      -0.030
  YS02001593           JUNCTION      0.00   319.48     0  01:46           0        1.62       0.005
  YS02001596           JUNCTION      0.00   318.34     0  01:47           0        1.62      -0.006
  YS02001600           JUNCTION      0.00   318.38     0  02:00           0        1.62      -0.003
  YS02001601           JUNCTION   1594.22  1911.64     0  01:40        3.12        4.75       0.016
  YS02001602           JUNCTION      0.00   574.34     0  01:32           0        2.63       0.012
  YS02001605           JUNCTION      0.00   574.11     0  01:32           0        2.45       0.014
  YS02001607           JUNCTION      0.00   573.99     0  01:32           0        2.45       0.077
  YS02001610           JUNCTION      0.00   879.24     0  01:42           0        2.93       0.076
  YS02001613           JUNCTION      0.00   554.67     0  01:33           0        2.25       0.081
  YS02001616           JUNCTION      0.00   565.02     0  01:33           0        2.25       0.009
  YS02001619           JUNCTION   1553.89  1553.89     0  01:42         3.7        5.47       0.001
  YS02001622           JUNCTION      0.00  1013.73     0  01:41           0        4.99      -0.010
  YS02001625           JUNCTION      0.00  1433.87     0  01:43           0        5.31       0.170
  YS02001629           JUNCTION      0.00   932.83     0  01:33           0        3.95      -0.003
  YS02001633           JUNCTION   1194.49  1441.60     0  01:34        2.29        5.79       0.055
  YS02001641           JUNCTION      0.00  1437.34     0  01:34           0        5.36       0.051
  YS02001644           JUNCTION   1069.36  1946.71     0  01:34        1.99        7.34       0.044
  YS02001647           JUNCTION      0.00  1943.72     0  01:34           0         6.6       0.008
  YS02001649           JUNCTION      0.00  2226.60     0  01:35           0        8.43       0.009
  YS02001652           JUNCTION      0.00  1086.79     0  01:37           0        1.84      -0.072
  YS02001655           JUNCTION      0.15  1084.86     0  01:37     0.00443        1.84      -0.131
  YS02001658           JUNCTION      0.00  1085.57     0  01:37           0        1.84      -0.075
  YS02001661           JUNCTION      0.00  1084.33     0  01:37           0        1.84       0.045
  YS02001664           JUNCTION   1036.67  1036.67     0  01:39        1.83        1.83      -0.040
  YS02001745           JUNCTION    675.49   724.19     0  01:36         1.1         1.1       0.148
  YS02001748           JUNCTION      0.04   858.48     0  01:35      0.0013         1.1      -0.363
  YS02001751           JUNCTION      0.01   682.41     0  01:37    0.000317        1.11       0.080
  YS02001754           JUNCTION      0.26   682.11     0  01:37     0.00749        1.12      -0.178
  YS02001757           JUNCTION      0.00  3642.33     0  01:37           0          13       0.045
  YS02001759           JUNCTION    934.04  1582.16     0  01:36        1.52        3.45      -0.007
  YS02001762           JUNCTION      0.00   837.50     0  01:36           0        1.93       0.008
  YS02001765           JUNCTION      0.00   840.41     0  01:36           0        1.93       0.023
  YS02001767           JUNCTION      0.54   845.09     0  01:36      0.0154        1.93      -0.004
  YS02001770           JUNCTION   1317.03  1317.03     0  01:39        2.31        2.35      -0.010
  YS02001774           JUNCTION      0.00   760.78     0  01:39           0       0.449       0.274
  YS02001779           JUNCTION      0.01   760.70     0  01:39    0.000144       0.402      -0.324
  YS02001783           JUNCTION      0.00  1170.78     0  01:36           0        4.91       0.005
  YS02001784           JUNCTION      1.06  1171.79     0  01:36      0.0305        4.94       0.012
  YS02001786           JUNCTION      0.06  1172.29     0  01:36     0.00162        4.94       0.012
  YS02001788           JUNCTION      0.07  1172.70     0  01:36     0.00204        4.94       0.006
  YS02001790           JUNCTION      0.15  1179.18     0  01:37     0.00446        4.94       0.028
  YS02001791           JUNCTION      0.00  1290.04     0  01:43           0        4.94      -0.032
  YS02001793           JUNCTION      0.00  1253.66     0  01:44           0        4.94       0.004
  YS02001882           JUNCTION      0.00   103.50     0  01:33           0      0.0136       4.960
  YS02001884           JUNCTION      0.00   139.51     0  01:33           0      0.0502       5.430
  YS02001887           JUNCTION   1022.27  1022.27     0  01:38        1.58        1.61       0.278
  YS02001890           JUNCTION      0.00  1022.67     0  01:38           0        1.57       0.340
  YS02001895           JUNCTION      0.00   571.80     0  01:34           0        1.34       0.131
  YS02001898           JUNCTION      0.00   577.97     0  01:34           0        1.34      -0.006
  YS02001901           JUNCTION      0.00   585.01     0  01:34           0        1.34       0.257
  YS02001904           JUNCTION      0.00   585.73     0  01:34           0        1.35       0.215
  YS02001907           JUNCTION      0.00  2407.34     0  01:39           0        4.82       0.378
  YS02001910           JUNCTION      0.00  1725.65     0  01:40           0        3.43       0.213
  YS02001915           JUNCTION   1159.22  1725.42     0  01:40        2.19        3.48       0.046
  YS02001918           JUNCTION      0.00   640.23     0  01:34           0        1.32       0.029
  YS02001920           JUNCTION      2.87   610.54     0  01:34      0.0827         1.3       0.047
  YS02001923           JUNCTION      0.04   826.45     0  01:34     0.00109         1.2      -0.050
  YS02001926           JUNCTION      0.05  1114.35     0  01:34      0.0015        1.18      -0.134
  YS02001929           JUNCTION    559.26   893.49     0  01:35        1.15        1.16      -0.092
  YS02006553           JUNCTION      0.00   792.41     0  02:05           0        2.74       0.440
  YS02006556           JUNCTION      0.00   792.39     0  02:05           0        2.75       0.292
  YS02006558           JUNCTION   1351.61  1351.61     0  01:39        2.31        4.99       0.075
  YS02006561           JUNCTION      0.00  1198.83     0  01:34           0        4.91      -0.003
  YS02163301           JUNCTION      0.00   911.88     0  01:34           0        3.93       0.037
  YS02163601           JUNCTION      0.11  1440.94     0  01:34     0.00317        5.35       0.087
  YS02164001           JUNCTION      0.00  1439.85     0  01:34           0        5.35       0.042
  CC-1                 OUTFALL       0.00   683.00     0  00:00           0        5.44       0.000
  CC-2                 OUTFALL       0.00   683.00     0  00:00           0        4.85       0.000
  JK-1                 OUTFALL       0.00  1000.00     0  00:00           0        2.22       0.000
  JK-2                 OUTFALL       0.00  1000.00     0  00:00           0        1.21       0.000
  WSC                  OUTFALL       0.00   558.38     0  02:11           0        5.08       0.000
  CC-storage           STORAGE       0.00  3642.57     0  01:37           0        15.2      -0.210
  JK-storage           STORAGE       0.00  1271.25     0  01:48           0        5.09      -0.342
  
  
  **********************
  Node Surcharge Summary
  **********************
  
  Surcharging occurs when water rises above the top of the highest conduit.
  ---------------------------------------------------------------------
                                               Max. Height   Min. Depth
                                   Hours       Above Crown    Below Rim
  Node                 Type      Surcharged         Meters       Meters
  ---------------------------------------------------------------------
  WS02004404           JUNCTION        0.06          0.045        2.735
  WS02006109           JUNCTION        1.95          1.764        0.056
  WS02006110           JUNCTION        1.00          1.850        0.000
  WS02006112           JUNCTION        1.17          0.087        1.593
  WS02006228           JUNCTION        1.95          1.172        1.028
  WS02006229           JUNCTION        1.95          0.944        1.506
  WS02006230           JUNCTION        1.01          0.839        0.731
  WS02006231           JUNCTION        1.11          0.840        0.690
  WS02006232           JUNCTION        2.00          0.832        0.648
  WS02006234           JUNCTION        1.49          0.964        0.276
  WS02006235           JUNCTION        1.94          1.021        0.269
  WS02006238           JUNCTION        1.97          1.050        0.380
  WS02006239           JUNCTION        1.94          0.984        0.306
  WS02006240           JUNCTION        1.94          0.901        0.489
  WS02006242           JUNCTION        1.96          0.820        0.000
  WS02006243           JUNCTION        1.89          0.770        0.000
  WS02006245           JUNCTION        1.87          0.700        0.150
  WS02006247           JUNCTION        1.87          0.591        0.169
  WS02006248           JUNCTION        1.86          0.380        0.000
  WS02006249           JUNCTION        1.86          0.390        0.000
  WS02006251           JUNCTION        1.16          0.389        0.791
  WS02006252           JUNCTION        2.18          1.100        0.000
  WS02006256           JUNCTION        6.84          2.050        0.000
  YS02001580           JUNCTION        0.86          0.450        0.000
  YS02001583           JUNCTION        0.87          0.500        0.000
  YS02001586           JUNCTION        1.04          0.510        0.000
  YS02001590           JUNCTION        1.13          0.750        0.000
  YS02001593           JUNCTION        1.13          0.750        0.090
  YS02001596           JUNCTION        1.26          0.995        0.075
  YS02001600           JUNCTION        1.44          1.190        0.000
  YS02001601           JUNCTION        1.72          1.440        0.000
  YS02001602           JUNCTION        1.65          1.270        0.000
  YS02001605           JUNCTION        1.62          1.180        0.000
  YS02001607           JUNCTION        1.12          0.680        0.000
  YS02001610           JUNCTION        1.16          0.680        0.000
  YS02001613           JUNCTION        1.12          0.700        0.000
  YS02001616           JUNCTION        1.07          0.610        0.000
  YS02001619           JUNCTION        1.05          0.610        0.000
  YS02001622           JUNCTION        1.05          0.620        0.000
  YS02001625           JUNCTION        1.26          0.780        0.000
  YS02001629           JUNCTION        1.00          0.470        0.000
  YS02001633           JUNCTION        1.29          1.022        0.038
  YS02001641           JUNCTION        1.24          0.976        0.124
  YS02001644           JUNCTION        1.22          0.920        0.000
  YS02001647           JUNCTION        0.99          0.811        0.089
  YS02001649           JUNCTION        1.14          1.050        0.000
  YS02001652           JUNCTION        0.90          1.100        0.030
  YS02001655           JUNCTION        0.64          1.200        0.000
  YS02001658           JUNCTION        0.33          1.119        0.181
  YS02001661           JUNCTION        0.10          1.001        0.389
  YS02001664           JUNCTION        0.01          0.661        0.649
  YS02001745           JUNCTION        0.01          0.994        0.356
  YS02001748           JUNCTION        0.24          1.190        0.000
  YS02001751           JUNCTION        0.45          1.200        0.000
  YS02001754           JUNCTION        0.77          1.150        0.000
  YS02001757           JUNCTION        1.24          1.210        0.000
  YS02001759           JUNCTION        1.12          1.208        0.002
  YS02001762           JUNCTION        1.08          1.150        0.000
  YS02001765           JUNCTION        1.03          1.100        0.000
  YS02001767           JUNCTION        0.98          1.030        0.000
  YS02001770           JUNCTION        0.94          0.920        0.000
  YS02001774           JUNCTION        1.06          1.050        0.000
  YS02001779           JUNCTION        0.74          0.680        0.000
  YS02001783           JUNCTION        0.73          0.564        1.036
  YS02001784           JUNCTION        0.70          0.432        1.058
  YS02001786           JUNCTION        0.59          0.159        1.271
  YS02001882           JUNCTION        0.66          0.830        0.000
  YS02001884           JUNCTION        0.67          0.844        0.026
  YS02001887           JUNCTION        0.71          0.857        0.093
  YS02001890           JUNCTION        0.73          0.760        0.000
  YS02001895           JUNCTION        0.65          0.750        0.000
  YS02001898           JUNCTION        0.64          0.740        0.000
  YS02001901           JUNCTION        0.70          0.870        0.000
  YS02001904           JUNCTION        0.69          0.850        0.000
  YS02001907           JUNCTION        0.96          0.950        0.000
  YS02001910           JUNCTION        0.76          1.005        0.095
  YS02001915           JUNCTION        0.66          1.000        0.000
  YS02001918           JUNCTION        0.57          0.810        0.000
  YS02001920           JUNCTION        0.58          1.140        0.000
  YS02001923           JUNCTION        0.20          0.820        0.000
  YS02001926           JUNCTION        0.24          0.900        0.000
  YS02001929           JUNCTION        0.03          0.780        0.000
  YS02006553           JUNCTION        0.98          1.190        0.000
  YS02006556           JUNCTION        0.85          1.350        0.000
  YS02006558           JUNCTION        0.85          1.317        0.083
  YS02006561           JUNCTION        0.53          0.296        0.854
  YS02163301           JUNCTION        1.27          0.939        0.091
  YS02163601           JUNCTION        1.33          1.080        0.000
  YS02164001           JUNCTION        1.24          1.100        0.000
  
  
  *********************
  Node Flooding Summary
  *********************
  
  Flooding refers to all water that overflows a node, whether it ponds or not.
  --------------------------------------------------------------------------
                                                             Total   Maximum
                                 Maximum   Time of Max       Flood    Ponded
                        Hours       Rate    Occurrence      Volume     Depth
  Node                 Flooded       LPS   days hr:min    10^6 ltr    Meters
  --------------------------------------------------------------------------
  WS02006110              0.01     41.60      0  02:16       0.000     0.000
  WS02006242              0.01     77.97      0  01:40       0.000     0.000
  WS02006243              0.01      2.59      0  02:27       0.000     0.000
  WS02006248              0.01     29.79      0  01:43       0.000     0.000
  WS02006249              1.13    111.56      0  01:43       0.280     0.000
  WS02006252              0.01    245.63      0  00:00       0.000     0.000
  WS02006256              1.51    293.19      0  00:00       0.535     0.000
  YS02001580              0.01     53.46      0  01:33       0.000     0.000
  YS02001583              0.01    192.52      0  01:33       0.000     0.000
  YS02001586              0.71    557.28      0  01:42       0.681     0.000
  YS02001590              0.01      5.05      0  01:32       0.000     0.000
  YS02001600              0.01      3.35      0  01:33       0.000     0.000
  YS02001601              0.95   1513.77      0  01:40       2.122     0.000
  YS02001602              0.83     64.25      0  01:47       0.172     0.000
  YS02001605              0.01      2.21      0  01:33       0.000     0.000
  YS02001607              0.01      4.22      0  01:47       0.000     0.000
  YS02001610              0.74    879.23      0  01:42       1.163     0.000
  YS02001613              0.01      0.89      0  01:46       0.000     0.000
  YS02001616              0.01     31.27      0  01:33       0.000     0.000
  YS02001619              0.01     91.73      0  01:33       0.000     0.000
  YS02001622              0.01    199.35      0  01:33       0.000     0.000
  YS02001625              0.71   1433.87      0  01:43       1.786     0.000
  YS02001629              0.20    409.87      0  01:38       0.129     0.000
  YS02001644              0.28   1314.87      0  01:39       0.736     0.000
  YS02001649              0.01    201.09      0  01:36       0.004     0.000
  YS02001655              0.01    221.26      0  02:15       0.000     0.000
  YS02001748              0.01    342.31      0  01:36       0.001     0.000
  YS02001751              0.01    298.72      0  01:36       0.001     0.000
  YS02001754              0.01     90.33      0  01:36       0.000     0.000
  YS02001757              0.01    136.03      0  01:36       0.001     0.000
  YS02001762              0.01     32.15      0  01:36       0.000     0.000
  YS02001765              0.01     23.64      0  01:36       0.000     0.000
  YS02001767              0.01     16.37      0  01:36       0.000     0.000
  YS02001770              0.02    109.97      0  01:36       0.005     0.000
  YS02001774              0.01     55.86      0  01:35       0.000     0.000
  YS02001779              0.25    760.62      0  01:39       0.382     0.000
  YS02001882              0.01     12.96      0  01:33       0.000     0.000
  YS02001890              0.23    506.82      0  01:38       0.221     0.000
  YS02001895              0.01      2.25      0  01:34       0.000     0.000
  YS02001898              0.01     12.52      0  01:34       0.000     0.000
  YS02001901              0.01      8.47      0  01:34       0.000     0.000
  YS02001904              0.01     10.90      0  01:34       0.000     0.000
  YS02001907              0.50   2406.93      0  01:39       2.117     0.000
  YS02001915              0.01    211.49      0  01:33       0.000     0.000
  YS02001918              0.01    249.74      0  01:35       0.004     0.000
  YS02001920              0.01     52.15      0  01:35       0.000     0.000
  YS02001923              0.01    205.72      0  01:35       0.001     0.000
  YS02001926              0.01    455.24      0  01:35       0.004     0.000
  YS02001929              0.01    591.65      0  01:35       0.002     0.000
  YS02006553              0.01      7.65      0  01:34       0.000     0.000
  YS02006556              0.01     16.18      0  01:34       0.000     0.000
  YS02163601              0.01      1.92      0  02:15       0.000     0.000
  YS02164001              0.01      1.84      0  01:46       0.000     0.000
  
  
  **********************
  Storage Volume Summary
  **********************
  
  ------------------------------------------------------------------------------------------------
                         Average    Avg   Evap  Exfil     Maximum    Max    Time of Max    Maximum
                          Volume   Pcnt   Pcnt   Pcnt      Volume   Pcnt     Occurrence    Outflow
  Storage Unit           1000 m³   Full   Loss   Loss     1000 m³   Full    days hr:min        LPS
  ------------------------------------------------------------------------------------------------
  CC-storage               2.404   37.5    0.0    0.0       4.779   74.5       0  02:22    1783.53
  JK-storage               0.083   28.6    0.0    0.0       0.213   73.2       0  01:39    2300.00
  
  
  ***********************
  Outfall Loading Summary
  ***********************
  
  -----------------------------------------------------------
                         Flow       Avg       Max       Total
                         Freq      Flow      Flow      Volume
  Outfall Node           Pcnt       LPS       LPS    10^6 ltr
  -----------------------------------------------------------
  CC-1                  45.32    683.00    683.00       5.444
  CC-2                  44.12    683.00    683.00       4.853
  JK-1                  12.45   1000.00   1000.00       2.222
  JK-2                   6.03   1000.00   1000.00       1.213
  WSC                   99.95    253.53    558.38       5.078
  -----------------------------------------------------------
  System                41.57   3619.53   3923.57      18.810
  
  
  ********************
  Link Flow Summary
  ********************
  
  -----------------------------------------------------------------------------
                                 Maximum  Time of Max   Maximum    Max/    Max/
                                  |Flow|   Occurrence   |Veloc|    Full    Full
  Link                 Type          LPS  days hr:min     m/sec    Flow   Depth
  -----------------------------------------------------------------------------
  1                    CONDUIT    558.38     0  02:11      2.83    0.19    0.30
  WS02003060WS02003069 CONDUIT    556.62     0  02:11      1.64    0.22    0.34
  WS02003066WSF200     CONDUIT    540.12     0  02:10      2.86    0.09    0.22
  WS02003067WS02003066 CONDUIT    540.08     0  02:10      1.21    0.17    0.42
  WS02003069WS02003072 CONDUIT    556.66     0  02:12      1.37    0.27    0.39
  WS02003072WS02003073 CONDUIT    556.59     0  02:10      1.44    1.20    0.37
  WS02004401WS02004402 CONDUIT    540.65     0  02:03      1.04    0.65    0.89
  WS02004402WS02004403 CONDUIT    542.60     0  02:03      1.05    0.78    0.91
  WS02004403WS02004404 CONDUIT    563.25     0  02:04      1.05    0.41    0.96
  WS02004404WS02004405 CONDUIT    608.51     0  02:08      1.19    5.96    0.98
  WS02004405WS02004406 CONDUIT    548.03     0  02:03      1.18    1.08    0.96
  WS02004406WS02004407 CONDUIT    541.10     0  02:08      1.04    0.24    0.63
  WS02004407WS02004409 CONDUIT    540.77     0  02:09      1.50    0.19    0.48
  WS02004409WS02004410 CONDUIT    540.55     0  02:09      0.98    0.70    0.68
  WS02004410WS02004411 CONDUIT    540.29     0  02:09      0.94    0.74    0.69
  WS02004411WS02004412 CONDUIT    540.28     0  02:10      0.93    0.77    0.70
  WS02004412WS02004413 CONDUIT    540.16     0  02:10      0.97    0.36    0.78
  WS02004413WS02003067 CONDUIT    540.03     0  02:10      1.11    0.23    0.59
  WS02006109WS02006110 CONDUIT    562.82     0  02:15      1.12    1.08    1.00
  WS02006110WS02006113 CONDUIT    582.01     0  02:16      1.42    0.53    0.79
  WS02006111WS02006112 CONDUIT    542.70     0  02:57      1.85    0.26    0.67
  WS02006112WS02006115 CONDUIT    551.62     0  03:16      0.78    0.33    0.88
  WS02006113WS02006111 CONDUIT    561.25     0  03:18      2.47    0.67    0.46
  WS02006115WS02006116 CONDUIT    539.18     0  02:00      1.11    0.69    0.79
  WS02006116WS02004401 CONDUIT    540.72     0  02:05      1.06    0.75    0.87
  WS02006228WS02006109 CONDUIT    561.31     0  02:15      1.12    2.45    1.00
  WS02006229WS02006228 CONDUIT    560.98     0  02:15      1.12    1.86    1.00
  WS02006230WS02006229 CONDUIT    560.91     0  02:15      1.46   12.48    1.00
  WS02006231WS02006230 CONDUIT    589.68     0  02:27      1.57    8.94    1.00
  WS02006232WS02006231 CONDUIT    580.18     0  03:05      1.51    1.22    1.00
  WS02006234WS02006232 CONDUIT    579.28     0  03:05      1.51    1.17    1.00
  WS02006235WS02006234 CONDUIT    573.48     0  03:05      1.49    6.05    1.00
  WS02006238WS02006235 CONDUIT    426.28     0  02:40      1.45    0.95    1.00
  WS02006239WS02006238 CONDUIT    426.21     0  02:40      1.11    1.36    1.00
  WS02006240WS02006239 CONDUIT    424.19     0  02:40      1.25    1.33    1.00
  WS02006242WS02006240 CONDUIT    420.60     0  02:40      1.13    1.67    1.00
  WS02006243WS02006242 CONDUIT    421.22     0  02:40      1.40    0.90    1.00
  WS02006245WS02006243 CONDUIT    420.47     0  02:40      1.45    1.24    1.00
  WS02006247WS02006245 CONDUIT    421.14     0  02:40      1.43    3.34    1.00
  WS02006248WS02006247 CONDUIT    420.95     0  02:40      1.44    0.92    1.00
  WS02006249WS02006248 CONDUIT    420.68     0  02:40      1.41    2.30    1.00
  WS02006251WS02006249 CONDUIT    490.64     0  01:35      1.99    1.41    1.00
  WS02006252WS02006251 CONDUIT    408.41     0  01:43     17.42    1.50    1.00
  WS02006256WS02006235 CONDUIT    288.91     0  00:00      4.23    3.06    1.00
  WSF200WS02003060     CONDUIT    540.26     0  02:11      2.06    0.12    0.28
  YS02001580YS02001583 CONDUIT    154.25     0  01:32      0.86    0.60    1.00
  YS02001583YS02001586 CONDUIT    195.50     0  01:33      0.89    0.30    1.00
  YS02001586YS02001590 CONDUIT    318.96     0  01:46      1.27    0.56    1.00
  YS02001590YS02001593 CONDUIT    319.48     0  01:46      1.13    2.01    1.00
  YS02001593YS02001596 CONDUIT    318.34     0  01:47      1.74    0.50    1.00
  YS02001596YS02001600 CONDUIT    318.38     0  02:00      1.23    0.62    1.00
  YS02001600YS02001601 CONDUIT    318.77     0  02:01      1.13    0.55    1.00
  YS02001601YS02001602 CONDUIT    574.34     0  01:32      2.03    2.07    1.00
  YS02001602YS02001605 CONDUIT    574.11     0  01:32      2.03   12.15    1.00
  YS02001605YS02001607 CONDUIT    573.99     0  01:32      2.03    3.15    1.00
  YS02001607YS02001610 CONDUIT    547.95     0  01:33      0.71    0.52    1.00
  YS02001610YS02001613 CONDUIT    554.67     0  01:33      0.71    0.64    1.00
  YS02001613YS02001616 CONDUIT    565.02     0  01:33      0.72    0.48    1.00
  YS02001616YS02001619 CONDUIT    543.04     0  01:42      0.69    0.94    1.00
  YS02001619YS02001622 CONDUIT   1013.73     0  01:41      1.29    1.49    1.00
  YS02001622YS02001625 CONDUIT   1013.82     0  01:41      1.29    0.54    1.00
  YS02001625YS02001629 CONDUIT    932.83     0  01:33      1.19    0.44    1.00
  YS02001629YS02163301 CONDUIT    911.88     0  01:34      1.16    1.12    1.00
  YS02001633YS02163601 CONDUIT   1440.83     0  01:34      1.83    1.51    1.00
  YS02001641YS02001644 CONDUIT   1437.50     0  01:34      1.83    4.65    1.00
  YS02001644YS02001647 CONDUIT   1943.72     0  01:34      2.47    1.14    1.00
  YS02001647YS02001649 CONDUIT   1920.56     0  01:34      2.45    1.01    1.00
  YS02001649YS02001757 CONDUIT   2212.84     0  01:35      2.82    1.34    1.00
  YS02001652YS02001649 CONDUIT   1085.34     0  01:37      1.38    0.54    1.00
  YS02001655YS02001652 CONDUIT   1086.79     0  01:37      1.54    0.53    1.00
  YS02001658YS02001655 CONDUIT   1084.71     0  01:37      2.04    0.46    1.00
  YS02001661YS02001658 CONDUIT   1085.57     0  01:37      2.44    0.43    1.00
  YS02001664YS02001661 CONDUIT   1084.33     0  01:37      2.55    0.34    1.00
  YS02001745YS02001748 CONDUIT    680.65     0  01:37      2.41    0.26    1.00
  YS02001748YS02001751 CONDUIT    682.40     0  01:37      1.88    0.34    1.00
  YS02001751YS02001754 CONDUIT    681.85     0  01:37      1.59    0.33    1.00
  YS02001754YS02001757 CONDUIT    681.93     0  01:37      0.87    0.27    1.00
  YS02001757CaochengTiaoxuchi CONDUIT   3642.57     0  01:37      4.99    1.58    1.00
  YS02001759YS02001757 CONDUIT   1581.90     0  01:36      2.01    1.12    1.00
  YS02001762YS02001759 CONDUIT    838.72     0  01:36      1.07    0.97    1.00
  YS02001765YS02001762 CONDUIT    837.50     0  01:36      1.07    0.79    1.00
  YS02001767YS02001765 CONDUIT    840.41     0  01:36      1.07    1.06    1.00
  YS02001770YS02001767 CONDUIT    844.55     0  01:36      1.08    3.35    1.00
  YS02001774YS02001770 CONDUIT    760.78     0  01:39      0.97    0.49    1.00
  YS02001779YS02001774 CONDUIT    760.70     0  01:39      0.97    0.38    1.00
  YS02001783YS02001784 CONDUIT   1170.73     0  01:36      2.33    1.61    1.00
  YS02001784YS02001785 CONDUIT   1172.23     0  01:36      2.33    2.73    1.00
  YS02001786YS02001788 CONDUIT   1172.63     0  01:36      2.50    2.26    0.89
  YS02001788YS02001790 CONDUIT   1179.03     0  01:37      2.72    0.87    0.84
  YS02001790YS02001791 CONDUIT   1290.04     0  01:43      3.43    1.40    0.70
  YS02001791YS02001793 CONDUIT   1253.66     0  01:44      6.75    0.54    0.45
  YS02001793JiankangQianchi CONDUIT   1271.25     0  01:48      2.55    0.10    0.65
  YS02001882YS02001884 CONDUIT    103.50     0  01:33      0.18    0.12    1.00
  YS02001884YS02001887 CONDUIT    139.51     0  01:33      0.18    0.19    1.00
  YS02001887YS02001890 CONDUIT   1022.67     0  01:38      1.30    1.75    1.00
  YS02001890YS02001895 CONDUIT    571.80     0  01:34      0.73    0.27    1.00
  YS02001895YS02001898 CONDUIT    577.97     0  01:34      0.74    1.00    1.00
  YS02001898YS02001901 CONDUIT    585.01     0  01:34      0.74    0.38    1.00
  YS02001901YS02001904 CONDUIT    585.73     0  01:34      0.75    0.91    1.00
  YS02001904YS02001907 CONDUIT    583.87     0  01:34      0.74    0.20    1.00
  YS02001907YS02006553 CONDUIT    792.41     0  02:05      0.88    0.93    1.00
  YS02001910YS02001907 CONDUIT   1725.55     0  01:40      2.20    0.97    1.00
  YS02001915YS02001910 CONDUIT   1725.65     0  01:40      2.20    0.86    1.00
  YS02001918YS02001915 CONDUIT    640.23     0  01:34      0.83    0.35    1.00
  YS02001920YS02001918 CONDUIT    607.67     0  01:34      0.77    0.59    1.00
  YS02001923YS02001920 CONDUIT    616.86     0  01:34      0.83    0.28    1.00
  YS02001926YS02001923 CONDUIT    869.23     0  01:34      1.33    1.24    1.00
  YS02001929YS02001926 CONDUIT    607.37     0  01:35      1.22    0.29    1.00
  YS02006553YS02006556 CONDUIT    792.39     0  02:05      1.01    0.68    1.00
  YS02006556YS02006558 CONDUIT    793.21     0  02:05      1.01    0.63    1.00
  YS02006558YS02006561 CONDUIT   1198.83     0  01:34      4.25    2.65    1.00
  YS02006561YS02001783 CONDUIT   1170.78     0  01:36      2.33    0.61    1.00
  YS02163301YS02001633 CONDUIT    911.77     0  01:34      1.16    0.86    1.00
  YS02163601YS02164001 CONDUIT   1439.85     0  01:34      1.83    1.28    1.00
  YS02164001YS02001641 CONDUIT   1437.34     0  01:34      1.83    1.96    1.00
  CC-R1                PUMP       683.00     0  00:00              1.00
  CC-R2                PUMP       683.00     0  00:00              1.00
  CC-S1                PUMP       200.00     0  00:00              1.00
  CC-S2                PUMP       200.00     0  00:00              1.00
  JK-R1                PUMP      1000.00     0  00:00              1.00
  JK-R2                PUMP      1000.00     0  00:00              1.00
  JK-S                 PUMP       300.00     0  00:00              1.00
  
  
  ***************************
  Flow Classification Summary
  ***************************
  
  -------------------------------------------------------------------------------------
                      Adjusted    ---------- Fraction of Time in Flow Class ---------- 
                       /Actual         Up    Down  Sub   Sup   Up    Down  Norm  Inlet 
  Conduit               Length    Dry  Dry   Dry   Crit  Crit  Crit  Crit  Ltd   Ctrl  
  -------------------------------------------------------------------------------------
  1                       1.00   0.00  0.00  0.00  0.00  1.00  0.00  0.00  0.35  0.00
  WS02003060WS02003069    1.00   0.00  0.00  0.00  0.98  0.02  0.00  0.00  0.72  0.00
  WS02003066WSF200        1.00   0.06  0.00  0.00  0.00  0.94  0.00  0.00  0.79  0.00
  WS02003067WS02003066    1.00   0.05  0.00  0.00  0.94  0.00  0.00  0.00  0.00  0.00
  WS02003069WS02003072    1.00   0.00  0.00  0.00  0.99  0.01  0.00  0.00  0.73  0.00
  WS02003072WS02003073    1.00   0.00  0.00  0.00  0.00  0.00  0.00  1.00  0.00  0.00
  WS02004401WS02004402    1.00   0.02  0.00  0.00  0.98  0.00  0.00  0.00  0.00  0.00
  WS02004402WS02004403    1.00   0.02  0.00  0.00  0.97  0.00  0.00  0.00  0.00  0.00
  WS02004403WS02004404    1.00   0.00  0.03  0.00  0.97  0.00  0.00  0.00  0.00  0.00
  WS02004404WS02004405    1.00   0.00  0.00  0.00  1.00  0.00  0.00  0.00  0.01  0.00
  WS02004405WS02004406    1.00   0.00  0.00  0.00  1.00  0.00  0.00  0.00  0.00  0.00
  WS02004406WS02004407    1.00   0.00  0.04  0.00  0.96  0.00  0.00  0.00  0.00  0.00
  WS02004407WS02004409    1.00   0.04  0.00  0.00  0.95  0.01  0.00  0.00  0.96  0.00
  WS02004409WS02004410    1.00   0.04  0.00  0.00  0.96  0.00  0.00  0.00  0.00  0.00
  WS02004410WS02004411    1.00   0.04  0.00  0.00  0.96  0.00  0.00  0.00  0.00  0.00
  WS02004411WS02004412    1.00   0.04  0.00  0.00  0.96  0.00  0.00  0.00  0.00  0.00
  WS02004412WS02004413    1.00   0.04  0.00  0.00  0.95  0.00  0.00  0.00  0.00  0.00
  WS02004413WS02003067    1.00   0.04  0.01  0.00  0.00  0.00  0.95  0.00  0.00  0.00
  WS02006109WS02006110    1.00   0.00  0.01  0.00  0.98  0.00  0.01  0.00  0.00  0.00
  WS02006110WS02006113    1.00   0.01  0.01  0.00  0.98  0.00  0.00  0.00  0.00  0.00
  WS02006111WS02006112    1.00   0.02  0.00  0.00  0.98  0.00  0.00  0.00  0.98  0.00
  WS02006112WS02006115    1.00   0.02  0.00  0.00  0.97  0.00  0.00  0.00  0.00  0.00
  WS02006113WS02006111    1.00   0.02  0.00  0.00  0.00  0.98  0.00  0.00  0.11  0.00
  WS02006115WS02006116    1.00   0.02  0.00  0.00  0.97  0.00  0.00  0.01  0.00  0.00
  WS02006116WS02004401    1.00   0.02  0.00  0.00  0.98  0.00  0.00  0.00  0.00  0.00
  WS02006228WS02006109    1.00   0.00  0.00  0.00  1.00  0.00  0.00  0.00  0.00  0.00
  WS02006229WS02006228    1.00   0.00  0.00  0.00  0.99  0.00  0.00  0.01  0.00  0.00
  WS02006230WS02006229    1.00   0.00  0.00  0.00  0.99  0.00  0.00  0.01  0.04  0.00
  WS02006231WS02006230    1.00   0.00  0.00  0.00  0.26  0.00  0.74  0.00  0.00  0.00
  WS02006232WS02006231    1.00   0.00  0.00  0.00  0.99  0.00  0.01  0.00  0.00  0.00
  WS02006234WS02006232    1.00   0.00  0.00  0.00  1.00  0.00  0.00  0.00  0.07  0.00
  WS02006235WS02006234    1.00   0.00  0.00  0.00  0.87  0.00  0.13  0.00  0.00  0.00
  WS02006238WS02006235    1.00   0.00  0.00  0.00  1.00  0.00  0.00  0.00  0.00  0.00
  WS02006239WS02006238    1.00   0.00  0.00  0.00  1.00  0.00  0.00  0.00  0.17  0.00
  WS02006240WS02006239    1.00   0.00  0.00  0.00  0.65  0.00  0.00  0.34  0.03  0.00
  WS02006242WS02006240    1.00   0.00  0.00  0.00  0.99  0.00  0.01  0.00  0.00  0.00
  WS02006243WS02006242    1.00   0.00  0.00  0.00  0.99  0.00  0.00  0.01  0.60  0.00
  WS02006245WS02006243    1.00   0.00  0.00  0.00  0.77  0.00  0.00  0.23  0.01  0.00
  WS02006247WS02006245    1.00   0.00  0.00  0.00  0.96  0.00  0.00  0.04  0.00  0.00
  WS02006248WS02006247    1.00   0.00  0.00  0.00  0.98  0.00  0.00  0.02  0.53  0.00
  WS02006249WS02006248    1.00   0.00  0.00  0.00  0.43  0.00  0.57  0.00  0.00  0.00
  WS02006251WS02006249    1.00   0.00  0.00  0.00  0.99  0.01  0.00  0.00  0.58  0.00
  WS02006252WS02006251    1.00   0.00  0.43  0.00  0.14  0.00  0.42  0.00  0.00  0.00
  WS02006256WS02006235    1.00   0.00  0.00  0.00  0.98  0.02  0.00  0.00  0.00  0.00
  WSF200WS02003060        1.00   0.00  0.06  0.00  0.45  0.49  0.00  0.00  0.63  0.00
  YS02001580YS02001583    1.00   0.19  0.58  0.00  0.23  0.00  0.00  0.00  0.67  0.00
  YS02001583YS02001586    1.00   0.41  0.30  0.00  0.29  0.00  0.00  0.00  0.67  0.00
  YS02001586YS02001590    1.00   0.13  0.00  0.00  0.44  0.04  0.00  0.40  0.33  0.00
  YS02001590YS02001593    1.00   0.13  0.01  0.00  0.16  0.00  0.71  0.00  0.00  0.00
  YS02001593YS02001596    1.00   0.13  0.00  0.00  0.18  0.01  0.00  0.68  0.02  0.00
  YS02001596YS02001600    1.00   0.13  0.00  0.00  0.23  0.01  0.00  0.63  0.03  0.00
  YS02001600YS02001601    1.00   0.13  0.01  0.00  0.86  0.00  0.00  0.00  0.58  0.00
  YS02001601YS02001602    1.00   0.13  0.01  0.00  0.87  0.00  0.00  0.00  0.00  0.00
  YS02001602YS02001605    1.00   0.13  0.00  0.00  0.87  0.00  0.00  0.00  0.00  0.00
  YS02001605YS02001607    1.00   0.13  0.00  0.00  0.87  0.00  0.00  0.00  0.00  0.00
  YS02001607YS02001610    1.00   0.13  0.01  0.00  0.86  0.00  0.00  0.00  0.01  0.00
  YS02001610YS02001613    1.00   0.13  0.00  0.00  0.87  0.00  0.00  0.00  0.00  0.00
  YS02001613YS02001616    1.00   0.13  0.00  0.00  0.87  0.00  0.00  0.00  0.00  0.00
  YS02001616YS02001619    1.00   0.13  0.00  0.00  0.87  0.00  0.00  0.00  0.00  0.00
  YS02001619YS02001622    1.00   0.13  0.00  0.00  0.87  0.00  0.00  0.00  0.28  0.00
  YS02001622YS02001625    1.00   0.13  0.00  0.00  0.87  0.00  0.00  0.00  0.03  0.00
  YS02001625YS02001629    1.00   0.13  0.04  0.00  0.20  0.00  0.63  0.00  0.00  0.00
  YS02001629YS02163301    1.00   0.14  0.01  0.00  0.85  0.00  0.00  0.00  0.00  0.00
  YS02001633YS02163601    1.00   0.00  0.01  0.00  0.99  0.00  0.00  0.00  0.14  0.00
  YS02001641YS02001644    1.00   0.00  0.01  0.00  0.99  0.00  0.00  0.00  0.00  0.00
  YS02001644YS02001647    1.00   0.00  0.16  0.00  0.84  0.00  0.00  0.00  0.00  0.00
  YS02001647YS02001649    1.00   0.00  0.16  0.00  0.59  0.26  0.00  0.00  0.56  0.00
  YS02001649YS02001757    1.00   0.00  0.00  0.00  0.76  0.24  0.00  0.00  0.41  0.00
  YS02001652YS02001649    1.00   0.00  0.00  0.00  0.97  0.03  0.00  0.00  0.71  0.00
  YS02001655YS02001652    1.00   0.00  0.00  0.00  0.23  0.01  0.00  0.77  0.04  0.00
  YS02001658YS02001655    1.00   0.00  0.14  0.00  0.71  0.16  0.00  0.00  0.65  0.00
  YS02001661YS02001658    1.00   0.14  0.00  0.00  0.54  0.32  0.00  0.00  0.70  0.00
  YS02001664YS02001661    1.00   0.13  0.00  0.00  0.76  0.11  0.00  0.00  0.84  0.00
  YS02001745YS02001748    1.00   0.00  0.00  0.00  0.15  0.01  0.00  0.85  0.06  0.00
  YS02001748YS02001751    1.00   0.00  0.00  0.00  0.87  0.13  0.00  0.00  0.77  0.00
  YS02001751YS02001754    1.00   0.00  0.00  0.00  0.22  0.00  0.00  0.78  0.04  0.00
  YS02001754YS02001757    1.00   0.00  0.00  0.00  1.00  0.00  0.00  0.00  0.77  0.00
  YS02001757CaochengTiaoxuchi    1.00   0.00  0.00  0.00  0.97  0.03  0.00  0.00  0.73  0.00
  YS02001759YS02001757    1.00   0.00  0.00  0.00  0.98  0.02  0.00  0.00  0.61  0.00
  YS02001762YS02001759    1.00   0.00  0.00  0.00  1.00  0.00  0.00  0.00  0.02  0.00
  YS02001765YS02001762    1.00   0.00  0.00  0.00  1.00  0.00  0.00  0.00  0.68  0.00
  YS02001767YS02001765    1.00   0.00  0.00  0.00  1.00  0.00  0.00  0.00  0.00  0.00
  YS02001770YS02001767    1.00   0.00  0.00  0.00  1.00  0.00  0.00  0.00  0.00  0.00
  YS02001774YS02001770    1.00   0.00  0.13  0.00  0.71  0.00  0.16  0.00  0.02  0.00
  YS02001779YS02001774    1.00   0.00  0.00  0.00  1.00  0.00  0.00  0.00  0.75  0.00
  YS02001783YS02001784    1.00   0.00  0.16  0.00  0.84  0.00  0.00  0.00  0.55  0.00
  YS02001784YS02001785    1.00   0.00  0.00  0.00  1.00  0.00  0.00  0.00  0.15  0.00
  YS02001786YS02001788    1.00   0.00  0.00  0.00  0.79  0.21  0.00  0.00  0.00  0.00
  YS02001788YS02001790    1.00   0.00  0.00  0.00  0.21  0.79  0.00  0.00  0.78  0.00
  YS02001790YS02001791    1.00   0.00  0.00  0.00  0.01  0.99  0.00  0.00  0.17  0.00
  YS02001791YS02001793    1.00   0.00  0.00  0.00  0.00  1.00  0.00  0.00  0.01  0.00
  YS02001793JiankangQianchi    1.00   0.00  0.00  0.00  0.96  0.04  0.00  0.00  0.96  0.00
  YS02001882YS02001884    1.00   0.15  0.01  0.00  0.85  0.00  0.00  0.00  0.00  0.00
  YS02001884YS02001887    1.00   0.06  0.05  0.00  0.89  0.00  0.00  0.00  0.00  0.00
  YS02001887YS02001890    1.00   0.00  0.00  0.00  0.97  0.00  0.03  0.00  0.00  0.00
  YS02001890YS02001895    1.00   0.00  0.15  0.00  0.85  0.00  0.00  0.00  0.00  0.00
  YS02001895YS02001898    1.00   0.15  0.00  0.00  0.83  0.00  0.01  0.00  0.00  0.00
  YS02001898YS02001901    1.00   0.16  0.00  0.00  0.84  0.00  0.00  0.00  0.00  0.00
  YS02001901YS02001904    1.00   0.16  0.00  0.00  0.84  0.00  0.00  0.00  0.00  0.00
  YS02001904YS02001907    1.00   0.00  0.15  0.00  0.84  0.00  0.00  0.00  0.00  0.00
  YS02001907YS02006553    1.00   0.00  0.02  0.00  0.98  0.00  0.00  0.00  0.00  0.00
  YS02001910YS02001907    1.00   0.00  0.00  0.00  0.97  0.00  0.00  0.03  0.12  0.00
  YS02001915YS02001910    1.00   0.00  0.00  0.00  0.97  0.03  0.00  0.00  0.13  0.00
  YS02001918YS02001915    1.00   0.00  0.01  0.00  0.98  0.02  0.00  0.00  0.72  0.00
  YS02001920YS02001918    1.00   0.00  0.01  0.00  0.99  0.00  0.00  0.00  0.00  0.00
  YS02001923YS02001920    1.00   0.00  0.00  0.00  1.00  0.00  0.00  0.00  0.90  0.00
  YS02001926YS02001923    1.00   0.00  0.07  0.00  0.08  0.00  0.84  0.00  0.00  0.00
  YS02001929YS02001926    1.00   0.00  0.13  0.00  0.87  0.00  0.00  0.00  0.80  0.00
  YS02006553YS02006556    1.00   0.01  0.00  0.00  0.99  0.00  0.00  0.00  0.03  0.00
  YS02006556YS02006558    1.00   0.00  0.00  0.00  1.00  0.00  0.00  0.00  0.00  0.00
  YS02006558YS02006561    1.00   0.16  0.00  0.00  0.08  0.76  0.00  0.00  0.18  0.00
  YS02006561YS02001783    1.00   0.16  0.00  0.00  0.11  0.72  0.00  0.00  0.66  0.00
  YS02163301YS02001633    1.00   0.00  0.14  0.00  0.86  0.00  0.00  0.00  0.00  0.00
  YS02163601YS02164001    1.00   0.00  0.08  0.00  0.92  0.00  0.00  0.00  0.00  0.00
  YS02164001YS02001641    1.00   0.01  0.07  0.00  0.92  0.00  0.00  0.00  0.05  0.00
  
  
  *************************
  Conduit Surcharge Summary
  *************************
  
  ----------------------------------------------------------------------------
                                                           Hours        Hours 
                         --------- Hours Full --------   Above Full   Capacity
  Conduit                Both Ends  Upstream  Dnstream   Normal Flow   Limited
  ----------------------------------------------------------------------------
  WS02003072WS02003073        0.01      0.01      0.01      1.54         0.01
  WS02004403WS02004404        0.01      0.01      0.04      0.01         0.01
  WS02004404WS02004405        0.01      0.04      0.01      2.84         0.01
  WS02004405WS02004406        0.01      0.01      0.01      0.90         0.01
  WS02006109WS02006110        1.00      1.00      1.96      1.09         0.01
  WS02006110WS02006113        0.01      0.01      1.95      0.01         0.01
  WS02006111WS02006112        0.01      0.01      2.16      0.01         0.01
  WS02006112WS02006115        0.01      0.01      1.16      0.01         0.01
  WS02006228WS02006109        1.95      1.96      1.95      2.35         1.95
  WS02006229WS02006228        1.95      1.95      1.95      2.14         1.94
  WS02006230WS02006229        2.02      2.10      2.02      3.36         2.01
  WS02006231WS02006230        1.01      1.01      1.16      2.94         0.01
  WS02006232WS02006231        1.11      1.11      2.00      1.18         0.01
  WS02006234WS02006232        1.93      1.93      2.00      1.15         1.14
  WS02006235WS02006234        1.48      1.48      1.94      2.86         0.02
  WS02006238WS02006235        1.95      1.95      2.00      0.01         0.01
  WS02006239WS02006238        1.95      1.96      1.97      1.94         1.67
  WS02006240WS02006239        1.94      1.95      1.94      1.94         1.55
  WS02006242WS02006240        1.94      1.94      1.96      2.12         0.01
  WS02006243WS02006242        1.89      1.89      1.96      0.01         0.03
  WS02006245WS02006243        1.88      1.88      1.89      0.97         0.99
  WS02006247WS02006245        1.87      1.88      1.87      2.69         1.86
  WS02006248WS02006247        1.87      1.87      1.87      0.01         0.04
  WS02006249WS02006248        1.86      1.86      1.86      2.65         0.01
  WS02006251WS02006249        1.86      1.86      1.86      2.08         1.81
  WS02006252WS02006251        2.16      2.16      2.18      2.16         0.01
  WS02006256WS02006235        2.86      2.91      6.76      1.54         0.01
  YS02001580YS02001583        0.86      0.86      0.93      0.01         0.01
  YS02001583YS02001586        0.87      0.87      1.04      0.01         0.01
  YS02001586YS02001590        1.05      1.05      1.13      0.01         0.01
  YS02001590YS02001593        1.13      1.13      1.15      1.21         0.01
  YS02001593YS02001596        1.14      1.14      1.26      0.01         0.01
  YS02001596YS02001600        1.31      1.31      1.44      0.01         0.01
  YS02001600YS02001601        1.51      1.51      1.72      0.01         0.01
  YS02001601YS02001602        1.65      1.65      1.75      1.44         0.01
  YS02001602YS02001605        1.62      1.62      1.65      2.39         0.01
  YS02001605YS02001607        1.58      1.62      1.58      1.70         1.58
  YS02001607YS02001610        1.12      1.12      1.16      0.01         0.01
  YS02001610YS02001613        1.12      1.12      1.16      0.01         0.01
  YS02001613YS02001616        1.07      1.07      1.12      0.01         0.01
  YS02001616YS02001619        1.05      1.05      1.07      0.01         0.05
  YS02001619YS02001622        1.05      1.05      1.05      1.12         1.00
  YS02001622YS02001625        1.05      1.05      1.26      0.01         0.01
  YS02001625YS02001629        1.00      1.00      1.26      0.01         0.01
  YS02001629YS02163301        1.26      1.26      1.27      0.02         0.16
  YS02001633YS02163601        1.29      1.29      1.33      0.41         0.38
  YS02001641YS02001644        1.22      1.24      1.22      1.77         1.21
  YS02001644YS02001647        0.99      0.99      1.22      0.04         0.01
  YS02001647YS02001649        0.99      0.99      1.14      0.01         0.01
  YS02001649YS02001757        1.14      1.14      1.24      0.05         0.05
  YS02001652YS02001649        0.94      0.94      1.14      0.01         0.01
  YS02001655YS02001652        0.64      0.64      0.90      0.01         0.01
  YS02001658YS02001655        0.33      0.33      0.63      0.01         0.01
  YS02001661YS02001658        0.10      0.10      0.33      0.01         0.01
  YS02001664YS02001661        0.01      0.01      0.14      0.01         0.01
  YS02001745YS02001748        0.01      0.01      0.24      0.01         0.01
  YS02001748YS02001751        0.29      0.29      0.45      0.01         0.01
  YS02001751YS02001754        0.45      0.45      0.77      0.01         0.01
  YS02001754YS02001757        0.84      0.84      1.24      0.01         0.01
  YS02001757CaochengTiaoxuchi        1.11      1.24      1.86      0.50         0.35
  YS02001759YS02001757        1.12      1.12      1.24      0.11         0.11
  YS02001762YS02001759        1.08      1.08      1.12      0.01         0.02
  YS02001765YS02001762        1.03      1.03      1.08      0.01         0.01
  YS02001767YS02001765        0.98      0.98      1.03      0.01         0.03
  YS02001770YS02001767        0.98      0.98      0.98      0.72         0.67
  YS02001774YS02001770        0.94      0.94      1.06      0.01         0.01
  YS02001779YS02001774        0.74      0.74      1.06      0.01         0.01
  YS02001783YS02001784        0.70      0.73      0.70      0.88         0.70
  YS02001784YS02001785        0.59      0.70      0.59      1.20         0.59
  YS02001786YS02001788        0.01      0.59      0.01      1.02         0.01
  YS02001790YS02001791        0.01      0.01      0.01      0.69         0.01
  YS02001793JiankangQianchi        0.01      0.01      6.64      0.01         0.01
  YS02001882YS02001884        0.66      0.66      0.67      0.01         0.01
  YS02001884YS02001887        0.70      0.70      0.71      0.01         0.01
  YS02001887YS02001890        0.73      0.73      0.74      0.20         0.01
  YS02001890YS02001895        0.65      0.65      0.76      0.01         0.01
  YS02001895YS02001898        0.64      0.64      0.65      0.01         0.01
  YS02001898YS02001901        0.65      0.65      0.70      0.01         0.01
  YS02001901YS02001904        0.69      0.69      0.70      0.01         0.01
  YS02001904YS02001907        0.69      0.69      0.99      0.01         0.01
  YS02001907YS02006553        1.21      1.21      1.30      0.01         0.01
  YS02001910YS02001907        0.76      0.76      0.96      0.01         0.01
  YS02001915YS02001910        0.66      0.66      0.76      0.01         0.01
  YS02001918YS02001915        0.57      0.57      0.66      0.01         0.01
  YS02001920YS02001918        0.57      0.57      0.58      0.01         0.01
  YS02001923YS02001920        0.52      0.52      0.58      0.01         0.01
  YS02001926YS02001923        0.20      0.20      0.24      0.01         0.01
  YS02001929YS02001926        0.03      0.03      0.24      0.01         0.01
  YS02006553YS02006556        0.85      0.85      0.98      0.01         0.01
  YS02006556YS02006558        0.91      0.91      1.02      0.01         0.01
  YS02006558YS02006561        0.61      0.85      0.61      1.14         0.61
  YS02006561YS02001783        0.53      0.53      0.73      0.01         0.01
  YS02163301YS02001633        1.27      1.27      1.31      0.01         0.01
  YS02163601YS02164001        1.24      1.24      1.33      0.04         0.01
  YS02164001YS02001641        1.24      1.24      1.24      0.90         0.85
  
  
  ***************
  Pumping Summary
  ***************
  
  ---------------------------------------------------------------------------------------------------------
                                                  Min       Avg       Max     Total     Power    % Time Off
                        Percent   Number of      Flow      Flow      Flow    Volume     Usage    Pump Curve
  Pump                 Utilized   Start-Ups       LPS       LPS       LPS  10^6 ltr     Kw-hr    Low   High
  ---------------------------------------------------------------------------------------------------------
  CC-R1                   27.73          19      0.00    683.00    683.00     5.454    101.19    0.0   23.5
  CC-R2                   24.75          24      0.00    683.00    683.00     4.869     89.71    0.0   33.3
  CC-S1                   31.97          21      0.00    200.00    200.00     1.842     10.42    0.0    0.0
  CC-S2                   29.84          23      0.00    200.00    200.00     1.719      9.70    0.0    0.0
  JK-R1                    7.71          16      0.00   1000.00   1000.00     2.221     24.86    0.0    0.0
  JK-R2                    4.21          14      0.00   1000.00   1000.00     1.213     10.03    0.0    0.0
  JK-S                    18.89          34      0.00    300.00    300.00     1.632     26.41    0.0    0.0
  

  Analysis begun on:  Mon Dec 30 10:20:18 2024
  Analysis ended on:  Mon Dec 30 10:20:20 2024
  Total elapsed time: 00:00:02