
  EPA STORM WATER MANAGEMENT MODEL - VERSION 5.2 (Build 5.2.4)
  PYSWMM TOOLKIT API - VERSION v1.0 (2023-11-27)
  ------------------------------------------------------------

  WARNING 04: minimum elevation drop used for Conduit WS02004404WS02004405
  WARNING 03: negative offset ignored for Link YS02001904YS02001907
  
  ****************
  Analysis Options
  ****************
  Flow Units ............... LPS
  Process Models:
    Rainfall/Runoff ........ YES
    RDII ................... NO
    Snowmelt ............... NO
    Groundwater ............ NO
    Flow Routing ........... YES
    Ponding Allowed ........ NO
    Water Quality .......... NO
  Infiltration Method ...... HORTON
  Flow Routing Method ...... DYNWAVE
  Surcharge Method ......... EXTRAN
  Starting Date ............ 08/28/2015 08:00:00
  Ending Date .............. 08/28/2015 16:00:00
  Antecedent Dry Days ...... 8.0
  Report Time Step ......... 00:01:00
  Wet Time Step ............ 00:01:00
  Dry Time Step ............ 00:01:00
  Routing Time Step ........ 30.00 sec
  Variable Time Step ....... YES
  Maximum Trials ........... 8
  Number of Threads ........ 4
  Head Tolerance ........... 0.001500 m
  
  
  **************************        Volume         Depth
  Runoff Quantity Continuity     hectare-m            mm
  **************************     ---------       -------
  Total Precipitation ......         2.234        67.346
  Evaporation Loss .........         0.000         0.000
  Infiltration Loss ........         0.100         3.002
  Surface Runoff ...........         2.102        63.364
  Final Storage ............         0.033         0.994
  Continuity Error (%) .....        -0.021
  
  
  **************************        Volume        Volume
  Flow Routing Continuity        hectare-m      10^6 ltr
  **************************     ---------     ---------
  Dry Weather Inflow .......         0.025         0.251
  Wet Weather Inflow .......         2.102        21.018
  Groundwater Inflow .......         0.000         0.000
  RDII Inflow ..............         0.000         0.000
  External Inflow ..........         0.083         0.834
  External Outflow .........         1.640        16.396
  Flooding Loss ............         0.641         6.405
  Evaporation Loss .........         0.000         0.000
  Exfiltration Loss ........         0.000         0.000
  Initial Stored Volume ....         0.243         2.431
  Final Stored Volume ......         0.182         1.815
  Continuity Error (%) .....        -0.338
  
  
  *************************
  Highest Continuity Errors
  *************************
  Node YS02001884 (5.41%)
  Node YS02001583 (-4.69%)
  Node WS02006256 (-3.39%)
  Node WS02006249 (1.14%)
  
  
  ***************************
  Time-Step Critical Elements
  ***************************
  Link WS02006238WS02006235 (27.57%)
  Link WS02006252WS02006251 (24.10%)
  Link WS02004404WS02004405 (16.93%)
  Link YS02001791YS02001793 (8.88%)
  Link WS02006235WS02006234 (5.82%)
  
  
  ********************************
  Highest Flow Instability Indexes
  ********************************
  Link WS02006113WS02006111 (32)
  Link WS02006256WS02006235 (23)
  Link WS02006252WS02006251 (19)
  Link WS02006238WS02006235 (19)
  Link WS02006111WS02006112 (17)
  
  
  *********************************
  Most Frequent Nonconverging Nodes
  *********************************
  Node CC-1 (14.13%)
  Node CC-2 (14.13%)
  Node JK-1 (14.13%)
  Node JK-2 (14.13%)
  Node WSC (14.13%)
  
  
  *************************
  Routing Time Step Summary
  *************************
  Minimum Time Step           :     0.00 sec
  Average Time Step           :     2.71 sec
  Maximum Time Step           :     6.43 sec
  % of Time in Steady State   :     0.00
  Average Iterations per Step :     3.42
  % of Steps Not Converging   :    14.13
  Time Step Frequencies       :
     30.000 - 13.228 sec      :     0.00 %
     13.228 -  5.833 sec      :    12.82 %
      5.833 -  2.572 sec      :    30.00 %
      2.572 -  1.134 sec      :    25.64 %
      1.134 -  0.500 sec      :    31.54 %
  
  
  ***************************
  Subcatchment Runoff Summary
  ***************************
  
  ------------------------------------------------------------------------------------------------------------------------------
                            Total      Total      Total      Total     Imperv       Perv      Total       Total     Peak  Runoff
                           Precip      Runon       Evap      Infil     Runoff     Runoff     Runoff      Runoff   Runoff   Coeff
  Subcatchment                 mm         mm         mm         mm         mm         mm         mm    10^6 ltr      LPS
  ------------------------------------------------------------------------------------------------------------------------------
  sub60                     67.35       0.00       0.00       1.81      58.06       6.28      64.34        0.85   571.03   0.955
  sub61                     67.35       0.00       0.00       2.61      54.77       8.84      63.60        1.17   792.22   0.944
  sub62                     67.35       0.00       0.00       1.20      60.67       4.19      64.86        1.78  1118.48   0.963
  sub63                     67.35       0.00       0.00       4.82      46.85      14.71      61.56        1.40   892.50   0.914
  sub64                     67.35       0.00       0.00       2.44      56.04       7.67      63.71        1.53   909.62   0.946
  sub65                     67.35       0.00       0.00       2.11      57.34       6.65      63.99        1.76  1019.96   0.950
  sub66                     67.35       0.00       0.00       5.98      46.74      13.55      60.29        2.81  1339.32   0.895
  sub67                     67.35       0.00       0.00       1.16      60.72       4.23      64.95        1.21   855.41   0.964
  sub68                     67.35       0.00       0.00       2.17      56.73       7.27      64.00        1.76  1147.02   0.950
  sub69                     67.35       0.00       0.00       1.93      57.13       8.18      65.31        2.42  1357.84   0.970
  sub70                     67.35       0.00       0.00       6.45      44.29      16.45      60.73        1.75   753.10   0.902
  sub71                     67.35       0.00       0.00       1.23      60.63       4.16      64.79        1.69   986.01   0.962
  sub72                     67.35       0.00       0.00       1.10      61.23       3.62      64.85        0.89   478.94   0.963
  
  
  ******************
  Node Depth Summary
  ******************
  
  ---------------------------------------------------------------------------------
                                 Average  Maximum  Maximum  Time of Max    Reported
                                   Depth    Depth      HGL   Occurrence   Max Depth
  Node                 Type       Meters   Meters   Meters  days hr:min      Meters
  ---------------------------------------------------------------------------------
  WS02003060           JUNCTION     0.20     0.38     5.31     0  02:38        0.38
  WS02003066           JUNCTION     0.17     0.30     5.85     0  02:38        0.30
  WS02003067           JUNCTION     0.45     0.70     6.02     0  02:37        0.70
  WS02003069           JUNCTION     0.22     0.43     5.01     0  02:39        0.43
  WS02003072           JUNCTION     0.28     0.50     4.87     0  02:39        0.50
  WS02003073           JUNCTION     0.16     0.30     4.36     0  02:40        0.30
  WS02004401           JUNCTION     0.53     0.87     6.87     0  02:35        0.87
  WS02004402           JUNCTION     0.56     0.90     6.86     0  02:35        0.90
  WS02004403           JUNCTION     0.58     0.92     6.85     0  02:33        0.91
  WS02004404           JUNCTION     0.65     1.02     6.87     0  02:35        1.00
  WS02004405           JUNCTION     0.65     0.97     6.82     0  02:35        0.96
  WS02004406           JUNCTION     0.66     0.96     6.79     0  02:35        0.96
  WS02004407           JUNCTION     0.15     0.30     6.61     0  02:36        0.30
  WS02004409           JUNCTION     0.32     0.67     6.44     0  02:36        0.66
  WS02004410           JUNCTION     0.35     0.68     6.40     0  02:36        0.68
  WS02004411           JUNCTION     0.37     0.69     6.37     0  02:37        0.69
  WS02004412           JUNCTION     0.40     0.70     6.34     0  02:37        0.70
  WS02004413           JUNCTION     0.55     0.86     6.33     0  02:37        0.86
  WS02006109           JUNCTION     0.58     1.22     7.83     0  02:25        1.19
  WS02006110           JUNCTION     0.59     1.56     8.14     0  02:26        1.56
  WS02006111           JUNCTION     0.15     0.29     7.00     0  03:01        0.29
  WS02006112           JUNCTION     0.67     1.08     6.96     0  02:34        1.06
  WS02006113           JUNCTION     0.23     0.46     7.36     0  03:01        0.46
  WS02006115           JUNCTION     0.41     0.77     6.91     0  02:34        0.77
  WS02006116           JUNCTION     0.50     0.85     6.89     0  02:35        0.85
  WS02006228           JUNCTION     0.57     1.41     8.06     0  02:25        1.16
  WS02006229           JUNCTION     0.55     1.52     8.21     0  02:25        1.20
  WS02006230           JUNCTION     0.54     1.79     8.53     0  02:25        1.34
  WS02006231           JUNCTION     0.37     1.46     8.59     0  02:25        1.10
  WS02006232           JUNCTION     0.49     1.59     8.63     0  02:25        1.27
  WS02006234           JUNCTION     0.41     1.54     8.70     0  02:25        1.52
  WS02006235           JUNCTION     0.45     1.82     8.99     0  03:01        1.82
  WS02006238           JUNCTION     0.48     1.92     9.07     0  03:01        1.92
  WS02006239           JUNCTION     0.44     2.00     9.21     0  03:01        2.00
  WS02006240           JUNCTION     0.41     1.91     9.20     0  03:01        1.91
  WS02006242           JUNCTION     0.47     1.55     8.82     0  02:15        1.55
  WS02006243           JUNCTION     0.38     1.48     8.90     0  03:01        1.48
  WS02006245           JUNCTION     0.39     1.49     8.98     0  03:01        1.49
  WS02006247           JUNCTION     0.40     1.41     8.91     0  03:01        1.41
  WS02006248           JUNCTION     0.37     1.10     8.69     0  02:15        1.10
  WS02006249           JUNCTION     0.40     1.09     8.69     0  02:03        1.09
  WS02006251           JUNCTION     0.39     1.41     9.08     0  02:04        1.14
  WS02006252           JUNCTION     0.28     1.50     9.74     0  00:00        0.73
  WS02006256           JUNCTION     0.96     2.35     9.28     0  00:00        2.35
  WSF200               JUNCTION     0.14     0.29     5.52     0  02:38        0.29
  YS02001580           JUNCTION     0.12     1.05     9.59     0  01:53        0.78
  YS02001583           JUNCTION     0.15     1.14     9.63     0  01:53        0.82
  YS02001586           JUNCTION     0.25     1.13     9.30     0  01:53        1.13
  YS02001590           JUNCTION     0.35     1.39     9.25     0  01:53        1.38
  YS02001593           JUNCTION     0.28     1.30     9.16     0  01:54        1.29
  YS02001596           JUNCTION     0.38     1.67     9.09     0  02:25        1.67
  YS02001600           JUNCTION     0.47     1.87     9.00     0  01:53        1.86
  YS02001601           JUNCTION     0.66     2.06     8.90     0  01:52        2.06
  YS02001602           JUNCTION     0.57     1.87     8.77     0  01:53        1.87
  YS02001605           JUNCTION     0.53     1.78     8.68     0  02:25        1.78
  YS02001607           JUNCTION     0.51     1.65     8.50     0  02:14        1.65
  YS02001610           JUNCTION     0.55     1.68     8.48     0  01:56        1.68
  YS02001613           JUNCTION     0.51     1.66     8.50     0  02:00        1.66
  YS02001616           JUNCTION     0.44     1.60     8.52     0  01:58        1.60
  YS02001619           JUNCTION     0.42     1.61     8.54     0  01:58        1.61
  YS02001622           JUNCTION     0.41     1.58     8.48     0  01:58        1.58
  YS02001625           JUNCTION     0.65     1.78     8.38     0  01:56        1.78
  YS02001629           JUNCTION     0.54     1.85     8.40     0  01:57        1.85
  YS02001633           JUNCTION     0.62     2.08     8.53     0  01:58        2.08
  YS02001641           JUNCTION     0.59     1.97     8.41     0  01:58        1.97
  YS02001644           JUNCTION     0.58     1.92     8.35     0  01:58        1.92
  YS02001647           JUNCTION     0.37     1.78     8.39     0  01:58        1.77
  YS02001649           JUNCTION     0.42     2.02     8.41     0  01:58        2.02
  YS02001652           JUNCTION     0.30     2.16     8.76     0  01:58        2.16
  YS02001655           JUNCTION     0.23     1.93     8.78     0  01:58        1.93
  YS02001658           JUNCTION     0.17     1.87     9.01     0  01:58        1.32
  YS02001661           JUNCTION     0.18     1.62     9.02     0  01:59        1.11
  YS02001664           JUNCTION     0.07     0.61     8.54     0  01:59        0.59
  YS02001745           JUNCTION     0.09     0.82     8.34     0  01:59        0.77
  YS02001748           JUNCTION     0.16     1.77     8.85     0  01:58        1.21
  YS02001751           JUNCTION     0.20     1.74     8.62     0  01:58        1.39
  YS02001754           JUNCTION     0.26     1.77     8.38     0  01:58        1.64
  YS02001757           JUNCTION     0.43     2.02     8.28     0  01:58        1.95
  YS02001759           JUNCTION     0.37     2.00     8.36     0  01:58        1.98
  YS02001762           JUNCTION     0.36     2.01     8.41     0  01:59        2.01
  YS02001765           JUNCTION     0.34     2.00     8.45     0  01:59        2.00
  YS02001767           JUNCTION     0.34     1.97     8.46     0  01:59        1.97
  YS02001770           JUNCTION     0.36     1.95     8.44     0  01:59        1.95
  YS02001774           JUNCTION     0.42     2.00     8.42     0  01:59        2.00
  YS02001779           JUNCTION     0.25     1.68     8.37     0  01:57        1.68
  YS02001783           JUNCTION     0.29     1.39     7.53     0  01:56        1.24
  YS02001784           JUNCTION     0.30     1.20     7.27     0  01:56        1.12
  YS02001786           JUNCTION     0.25     0.94     6.97     0  01:56        0.87
  YS02001788           JUNCTION     0.18     0.62     6.60     0  01:59        0.62
  YS02001790           JUNCTION     0.22     0.73     6.37     0  01:59        0.71
  YS02001791           JUNCTION     0.14     0.44     5.91     0  02:02        0.44
  YS02001793           JUNCTION     0.07     0.30     5.13     0  02:15        0.30
  YS02001882           JUNCTION     0.37     1.67     8.39     0  01:56        1.64
  YS02001884           JUNCTION     0.45     1.76     8.38     0  01:56        1.75
  YS02001887           JUNCTION     0.53     1.83     8.37     0  01:58        1.83
  YS02001890           JUNCTION     0.55     1.81     8.32     0  01:56        1.81
  YS02001895           JUNCTION     0.34     1.57     8.31     0  02:04        1.56
  YS02001898           JUNCTION     0.34     1.57     8.30     0  01:56        1.56
  YS02001901           JUNCTION     0.45     1.68     8.29     0  01:56        1.67
  YS02001904           JUNCTION     0.43     1.64     8.27     0  01:56        1.64
  YS02001907           JUNCTION     0.74     1.96     8.25     0  01:56        1.96
  YS02001910           JUNCTION     0.55     1.97     8.48     0  01:57        1.89
  YS02001915           JUNCTION     0.37     1.92     8.64     0  01:57        1.79
  YS02001918           JUNCTION     0.21     1.81     8.88     0  01:57        1.47
  YS02001920           JUNCTION     0.29     2.14     9.15     0  01:57        1.54
  YS02001923           JUNCTION     0.17     2.03     9.29     0  01:57        1.30
  YS02001926           JUNCTION     0.20     1.90     9.35     0  01:57        1.12
  YS02001929           JUNCTION     0.12     1.78     9.47     0  01:57        0.89
  YS02006553           JUNCTION     0.74     2.01     8.30     0  01:56        1.99
  YS02006556           JUNCTION     0.71     2.04     8.35     0  01:56        1.98
  YS02006558           JUNCTION     0.75     2.09     8.36     0  01:56        2.02
  YS02006561           JUNCTION     0.18     1.13     7.79     0  01:56        0.90
  YS02163301           JUNCTION     0.56     1.95     8.47     0  01:58        1.95
  YS02163601           JUNCTION     0.65     2.08     8.48     0  01:58        2.08
  YS02164001           JUNCTION     0.58     1.98     8.44     0  01:58        1.98
  CC-1                 OUTFALL      0.00     0.00     0.00     0  00:00        0.00
  CC-2                 OUTFALL      0.00     0.00     0.00     0  00:00        0.00
  JK-1                 OUTFALL      0.00     0.00     0.00     0  00:00        0.00
  JK-2                 OUTFALL      0.00     0.00     0.00     0  00:00        0.00
  WSC                  OUTFALL      0.16     0.30     0.97     0  02:40        0.30
  CC-storage           STORAGE      0.78     1.59     7.09     0  02:31        1.59
  JK-storage           STORAGE      1.51     4.21     5.01     0  02:15        4.18
  
  
  *******************
  Node Inflow Summary
  *******************
  
  -------------------------------------------------------------------------------------------------
                                  Maximum  Maximum                  Lateral       Total        Flow
                                  Lateral    Total  Time of Max      Inflow      Inflow     Balance
                                   Inflow   Inflow   Occurrence      Volume      Volume       Error
  Node                 Type           LPS      LPS  days hr:min    10^6 ltr    10^6 ltr     Percent
  -------------------------------------------------------------------------------------------------
  WS02003060           JUNCTION     16.53   550.67     0  02:38       0.476           4       0.055
  WS02003066           JUNCTION      0.00   533.88     0  02:38           0        3.52       0.038
  WS02003067           JUNCTION      0.00   533.78     0  02:37           0        3.53       0.117
  WS02003069           JUNCTION      0.32   550.84     0  02:38     0.00922           4       0.097
  WS02003072           JUNCTION      0.00   550.39     0  02:39           0           4       0.173
  WS02003073           JUNCTION      1.82   551.83     0  02:39      0.0524        4.04       0.138
  WS02004401           JUNCTION      0.00   542.56     0  03:02           0        3.62       0.280
  WS02004402           JUNCTION      0.00   537.66     0  02:35           0        3.61       0.284
  WS02004403           JUNCTION      0.00   537.25     0  02:35           0         3.6       0.278
  WS02004404           JUNCTION      0.16   551.79     0  02:34     0.00467         3.6       0.221
  WS02004405           JUNCTION      0.04   601.98     0  02:33      0.0011        3.59       0.314
  WS02004406           JUNCTION      0.00   540.46     0  02:35           0        3.58       0.579
  WS02004407           JUNCTION      0.00   536.45     0  02:35           0        3.56       0.028
  WS02004409           JUNCTION      0.00   535.96     0  02:36           0        3.56       0.070
  WS02004410           JUNCTION      0.00   535.25     0  02:36           0        3.56       0.120
  WS02004411           JUNCTION      0.00   534.76     0  02:36           0        3.55       0.154
  WS02004412           JUNCTION      0.00   534.29     0  02:37           0        3.55       0.207
  WS02004413           JUNCTION      0.00   534.18     0  02:37           0        3.54       0.376
  WS02006109           JUNCTION      1.23   580.96     0  03:01      0.0354        3.67       0.143
  WS02006110           JUNCTION      0.00   584.34     0  03:01           0        3.66       0.170
  WS02006111           JUNCTION      0.00   574.69     0  03:01           0        3.65       0.022
  WS02006112           JUNCTION      0.00   553.72     0  03:01           0        3.65       0.506
  WS02006113           JUNCTION      0.00   598.34     0  03:01           0        3.66       0.041
  WS02006115           JUNCTION      0.00   578.53     0  03:01           0        3.64       0.183
  WS02006116           JUNCTION      0.00   553.21     0  03:02           0        3.63       0.134
  WS02006228           JUNCTION      0.00   573.06     0  03:01           0        3.63       0.080
  WS02006229           JUNCTION      0.00   568.01     0  03:01           0        3.64       0.179
  WS02006230           JUNCTION     10.28   584.41     0  02:11       0.296        3.65       0.122
  WS02006231           JUNCTION      0.00   576.74     0  02:45           0        3.35      -0.005
  WS02006232           JUNCTION      0.00   575.91     0  02:45           0        3.36       0.213
  WS02006234           JUNCTION      0.00   570.57     0  02:45           0        3.34      -0.437
  WS02006235           JUNCTION      0.00   576.74     0  02:00           0        3.46       0.400
  WS02006238           JUNCTION      0.00   425.81     0  02:35           0        2.76      -0.252
  WS02006239           JUNCTION      0.00   424.31     0  03:02           0        2.68      -0.093
  WS02006240           JUNCTION      0.00   422.50     0  03:02           0        2.64      -0.123
  WS02006242           JUNCTION      0.00   422.94     0  03:02           0        2.63      -0.076
  WS02006243           JUNCTION      0.00   422.22     0  03:02           0        2.61      -0.372
  WS02006245           JUNCTION      0.00   421.41     0  02:35           0        2.63       0.793
  WS02006247           JUNCTION      0.00   421.63     0  02:35           0        2.63      -0.051
  WS02006248           JUNCTION      0.00   421.19     0  02:35           0        2.63      -0.098
  WS02006249           JUNCTION      0.00   497.15     0  01:55           0        2.76       1.155
  WS02006251           JUNCTION      0.08   407.95     0  02:04     0.00222        2.76       0.047
  WS02006252           JUNCTION      0.00   400.00     0  00:00           0        2.74      -0.619
  WS02006256           JUNCTION      0.00   300.00     0  00:00           0       0.982      -3.277
  WSF200               JUNCTION      0.00   533.95     0  02:38           0        3.52       0.012
  YS02001580           JUNCTION      0.00   122.02     0  01:53           0      0.0043      -1.453
  YS02001583           JUNCTION      0.00   160.23     0  01:53           0      0.0153      -4.477
  YS02001586           JUNCTION    753.10   753.12     0  02:04        1.75        1.77       0.067
  YS02001590           JUNCTION      0.00   317.97     0  02:13           0        1.36      -0.034
  YS02001593           JUNCTION      0.00   318.11     0  02:14           0        1.36       0.003
  YS02001596           JUNCTION      0.00   317.99     0  02:14           0        1.36      -0.004
  YS02001600           JUNCTION      0.00   318.12     0  02:25           0        1.36       0.009
  YS02001601           JUNCTION   1357.84  1675.33     0  02:03        2.42        3.77       0.018
  YS02001602           JUNCTION      0.00   519.80     0  01:52           0        2.29       0.022
  YS02001605           JUNCTION      0.00   519.24     0  01:52           0        2.17       0.031
  YS02001607           JUNCTION      0.00   518.84     0  01:52           0        2.17       0.085
  YS02001610           JUNCTION      0.00   738.83     0  02:04           0        2.42       0.087
  YS02001613           JUNCTION      0.00   521.80     0  01:52           0        1.94       0.084
  YS02001616           JUNCTION      0.00   519.01     0  01:52           0        1.94       0.021
  YS02001619           JUNCTION   1339.32  1339.32     0  02:04        2.81         4.5      -0.002
  YS02001622           JUNCTION      0.00   951.31     0  02:02           0        4.24      -0.000
  YS02001625           JUNCTION      0.00  1345.05     0  02:04           0        4.44       0.200
  YS02001629           JUNCTION      0.00   941.76     0  01:53           0        3.51       0.031
  YS02001633           JUNCTION   1020.16  1401.83     0  01:56        1.77        5.02       0.068
  YS02001641           JUNCTION      0.00  1395.86     0  01:56           0        4.78       0.057
  YS02001644           JUNCTION    909.66  1829.80     0  01:56        1.53         6.3       0.051
  YS02001647           JUNCTION      0.00  1831.58     0  01:56           0        5.91       0.006
  YS02001649           JUNCTION      0.00  2107.46     0  01:56           0        7.31       0.004
  YS02001652           JUNCTION      0.00   891.19     0  02:02           0         1.4      -0.066
  YS02001655           JUNCTION      0.15   891.08     0  02:02     0.00443         1.4      -0.029
  YS02001658           JUNCTION      0.00   890.21     0  02:02           0         1.4      -0.021
  YS02001661           JUNCTION      0.00   889.90     0  02:02           0         1.4       0.025
  YS02001664           JUNCTION    892.50   892.50     0  02:02         1.4         1.4      -0.009
  YS02001745           JUNCTION    571.03   571.03     0  02:02       0.846       0.846       0.182
  YS02001748           JUNCTION      0.04   619.81     0  01:58      0.0013       0.846      -0.246
  YS02001751           JUNCTION      0.01   595.86     0  02:01    0.000317       0.852       0.126
  YS02001754           JUNCTION      0.26   596.22     0  02:01     0.00749       0.863      -0.159
  YS02001757           JUNCTION      0.00  3539.65     0  02:01           0          11       0.052
  YS02001759           JUNCTION    792.26  1439.12     0  02:01        1.17        2.79      -0.005
  YS02001762           JUNCTION      0.00   797.41     0  01:58           0        1.62       0.004
  YS02001765           JUNCTION      0.00   800.72     0  01:58           0        1.62       0.010
  YS02001767           JUNCTION      0.54   801.97     0  01:58      0.0154        1.62       0.009
  YS02001770           JUNCTION   1118.64  1118.64     0  02:02        1.78        1.82      -0.008
  YS02001774           JUNCTION      0.00   499.24     0  02:02           0       0.242       0.380
  YS02001779           JUNCTION      0.01   499.47     0  02:02    0.000144       0.198      -0.317
  YS02001783           JUNCTION      0.00  1165.81     0  02:01           0        4.11       0.005
  YS02001784           JUNCTION      1.06  1166.92     0  02:00      0.0305        4.14       0.012
  YS02001786           JUNCTION      0.06  1167.01     0  02:01     0.00162        4.14       0.016
  YS02001788           JUNCTION      0.07  1167.01     0  02:01     0.00204        4.14       0.007
  YS02001790           JUNCTION      0.15  1175.68     0  01:59     0.00446        4.15       0.024
  YS02001791           JUNCTION      0.00  1285.33     0  02:05           0        4.14      -0.026
  YS02001793           JUNCTION      0.00  1253.32     0  01:59           0        4.15       0.006
  YS02001882           JUNCTION      0.00    50.53     0  01:54           0      0.0126       5.530
  YS02001884           JUNCTION      0.00    75.21     0  01:54           0      0.0483       5.722
  YS02001887           JUNCTION    855.86   856.41     0  02:01        1.22        1.25       0.359
  YS02001890           JUNCTION      0.00   856.28     0  02:01           0        1.21       0.424
  YS02001895           JUNCTION      0.00   518.24     0  02:05           0        1.09       0.150
  YS02001898           JUNCTION      0.00   518.70     0  02:05           0        1.09       0.011
  YS02001901           JUNCTION      0.00   518.06     0  02:05           0        1.09       0.309
  YS02001904           JUNCTION      0.00   518.06     0  02:06           0         1.1       0.257
  YS02001907           JUNCTION      0.00  2000.53     0  02:02           0        3.76       0.470
  YS02001910           JUNCTION      0.00  1484.37     0  02:02           0        2.67       0.272
  YS02001915           JUNCTION    986.03  1484.17     0  02:02        1.69        2.71       0.056
  YS02001918           JUNCTION      0.00   499.32     0  02:02           0        1.04       0.021
  YS02001920           JUNCTION      2.87   499.36     0  02:02      0.0827        1.02       0.074
  YS02001923           JUNCTION      0.04   499.54     0  02:02     0.00109       0.926      -0.057
  YS02001926           JUNCTION      0.05   585.82     0  01:56      0.0015       0.904      -0.054
  YS02001929           JUNCTION    478.94   478.94     0  02:03       0.892       0.893      -0.066
  YS02006553           JUNCTION      0.00   797.54     0  02:20           0        2.37       0.502
  YS02006556           JUNCTION      0.00   797.45     0  02:19           0        2.38       0.343
  YS02006558           JUNCTION   1147.90  1166.17     0  02:00        1.79        4.14       0.085
  YS02006561           JUNCTION      0.00  1165.97     0  02:01           0        4.11      -0.002
  YS02163301           JUNCTION      0.00   929.72     0  01:55           0         3.5       0.045
  YS02163601           JUNCTION      0.11  1400.42     0  01:56     0.00317        4.77       0.104
  YS02164001           JUNCTION      0.00  1398.93     0  01:56           0        4.77       0.050
  CC-1                 OUTFALL       0.00   683.00     0  00:00           0        4.84       0.000
  CC-2                 OUTFALL       0.00   683.00     0  00:00           0        4.24       0.000
  JK-1                 OUTFALL       0.00  1000.00     0  00:00           0        2.05       0.000
  JK-2                 OUTFALL       0.00  1000.00     0  00:00           0        1.23       0.000
  WSC                  OUTFALL       0.00   551.28     0  02:40           0        4.04       0.000
  CC-storage           STORAGE       0.00  3539.47     0  02:01           0        13.2      -0.245
  JK-storage           STORAGE       0.00  1244.21     0  01:58           0         4.3      -0.362
  
  
  **********************
  Node Surcharge Summary
  **********************
  
  Surcharging occurs when water rises above the top of the highest conduit.
  ---------------------------------------------------------------------
                                               Max. Height   Min. Depth
                                   Hours       Above Crown    Below Rim
  Node                 Type      Surcharged         Meters       Meters
  ---------------------------------------------------------------------
  WS02004404           JUNCTION        0.01          0.018        2.762
  WS02006109           JUNCTION        1.32          0.396        1.424
  WS02006110           JUNCTION        0.31          0.648        1.202
  WS02006112           JUNCTION        0.42          0.081        1.599
  WS02006228           JUNCTION        1.30          0.580        1.620
  WS02006229           JUNCTION        1.33          0.719        1.731
  WS02006230           JUNCTION        0.33          0.710        0.860
  WS02006231           JUNCTION        0.40          0.752        0.778
  WS02006232           JUNCTION        1.42          0.890        0.590
  WS02006234           JUNCTION        0.60          0.822        0.418
  WS02006235           JUNCTION        1.33          1.113        0.177
  WS02006238           JUNCTION        1.38          1.202        0.228
  WS02006239           JUNCTION        1.32          1.261        0.029
  WS02006240           JUNCTION        1.32          1.196        0.194
  WS02006242           JUNCTION        1.38          0.820        0.000
  WS02006243           JUNCTION        1.32          0.770        0.000
  WS02006245           JUNCTION        1.32          0.785        0.065
  WS02006247           JUNCTION        1.33          0.702        0.058
  WS02006248           JUNCTION        1.31          0.380        0.000
  WS02006249           JUNCTION        1.31          0.390        0.000
  WS02006251           JUNCTION        0.45          0.380        0.800
  WS02006252           JUNCTION        1.70          1.100        0.000
  WS02006256           JUNCTION        6.46          2.050        0.000
  YS02001580           JUNCTION        0.65          0.450        0.000
  YS02001583           JUNCTION        0.66          0.498        0.002
  YS02001586           JUNCTION        0.78          0.510        0.000
  YS02001590           JUNCTION        0.85          0.743        0.007
  YS02001593           JUNCTION        0.86          0.677        0.163
  YS02001596           JUNCTION        0.97          0.938        0.132
  YS02001600           JUNCTION        1.12          1.188        0.002
  YS02001601           JUNCTION        1.46          1.440        0.000
  YS02001602           JUNCTION        1.37          1.270        0.000
  YS02001605           JUNCTION        1.32          1.180        0.000
  YS02001607           JUNCTION        0.83          0.654        0.026
  YS02001610           JUNCTION        0.85          0.680        0.000
  YS02001613           JUNCTION        0.82          0.660        0.040
  YS02001616           JUNCTION        0.78          0.604        0.006
  YS02001619           JUNCTION        0.77          0.610        0.000
  YS02001622           JUNCTION        0.76          0.576        0.044
  YS02001625           JUNCTION        0.94          0.780        0.000
  YS02001629           JUNCTION        0.71          0.470        0.000
  YS02001633           JUNCTION        0.96          1.060        0.000
  YS02001641           JUNCTION        0.90          0.969        0.131
  YS02001644           JUNCTION        0.86          0.920        0.000
  YS02001647           JUNCTION        0.64          0.784        0.116
  YS02001649           JUNCTION        0.77          1.022        0.028
  YS02001652           JUNCTION        0.56          1.130        0.000
  YS02001655           JUNCTION        0.40          0.927        0.273
  YS02001658           JUNCTION        0.22          0.871        0.429
  YS02001661           JUNCTION        0.03          0.548        0.842
  YS02001748           JUNCTION        0.14          0.692        0.498
  YS02001751           JUNCTION        0.28          0.742        0.458
  YS02001754           JUNCTION        0.45          0.721        0.429
  YS02001757           JUNCTION        0.82          1.022        0.188
  YS02001759           JUNCTION        0.73          0.997        0.213
  YS02001762           JUNCTION        0.69          1.013        0.137
  YS02001765           JUNCTION        0.65          0.999        0.101
  YS02001767           JUNCTION        0.61          0.973        0.057
  YS02001770           JUNCTION        0.58          0.920        0.000
  YS02001774           JUNCTION        0.68          1.001        0.049
  YS02001779           JUNCTION        0.45          0.680        0.000
  YS02001783           JUNCTION        0.57          0.589        1.011
  YS02001784           JUNCTION        0.55          0.404        1.086
  YS02001786           JUNCTION        0.44          0.143        1.287
  YS02001882           JUNCTION        0.52          0.673        0.157
  YS02001884           JUNCTION        0.53          0.702        0.168
  YS02001887           JUNCTION        0.56          0.782        0.168
  YS02001890           JUNCTION        0.57          0.760        0.000
  YS02001895           JUNCTION        0.51          0.567        0.183
  YS02001898           JUNCTION        0.50          0.538        0.202
  YS02001901           JUNCTION        0.55          0.682        0.188
  YS02001904           JUNCTION        0.54          0.644        0.206
  YS02001907           JUNCTION        0.79          0.950        0.000
  YS02001910           JUNCTION        0.60          0.974        0.126
  YS02001915           JUNCTION        0.51          0.923        0.077
  YS02001918           JUNCTION        0.43          0.810        0.000
  YS02001920           JUNCTION        0.44          1.140        0.000
  YS02001923           JUNCTION        0.12          0.820        0.000
  YS02001926           JUNCTION        0.15          0.900        0.000
  YS02001929           JUNCTION        0.01          0.780        0.000
  YS02006553           JUNCTION        0.80          1.014        0.176
  YS02006556           JUNCTION        0.69          0.996        0.354
  YS02006558           JUNCTION        0.68          0.989        0.411
  YS02006561           JUNCTION        0.39          0.325        0.825
  YS02163301           JUNCTION        0.94          0.953        0.077
  YS02163601           JUNCTION        0.99          1.079        0.001
  YS02164001           JUNCTION        0.90          0.978        0.122
  
  
  *********************
  Node Flooding Summary
  *********************
  
  Flooding refers to all water that overflows a node, whether it ponds or not.
  --------------------------------------------------------------------------
                                                             Total   Maximum
                                 Maximum   Time of Max       Flood    Ponded
                        Hours       Rate    Occurrence      Volume     Depth
  Node                 Flooded       LPS   days hr:min    10^6 ltr    Meters
  --------------------------------------------------------------------------
  WS02006242              0.01      7.56      0  03:01       0.000     0.000
  WS02006243              0.01      1.21      0  03:01       0.000     0.000
  WS02006248              0.01     27.92      0  02:15       0.000     0.000
  WS02006249              0.43    110.02      0  03:01       0.102     0.000
  WS02006252              0.01    245.63      0  00:00       0.000     0.000
  WS02006256              0.90    293.19      0  00:00       0.284     0.000
  YS02001580              0.01    105.17      0  01:53       0.000     0.000
  YS02001586              0.52    435.60      0  02:04       0.398     0.000
  YS02001601              0.70   1277.45      0  02:03       1.482     0.000
  YS02001602              0.58     62.04      0  02:12       0.118     0.000
  YS02001605              0.01      0.18      0  02:25       0.000     0.000
  YS02001610              0.51    738.62      0  02:04       0.733     0.000
  YS02001619              0.01      0.43      0  01:58       0.000     0.000
  YS02001625              0.47   1344.96      0  02:04       1.172     0.000
  YS02001629              0.12    236.88      0  02:00       0.056     0.000
  YS02001633              0.01      1.13      0  01:58       0.000     0.000
  YS02001644              0.19    896.67      0  02:02       0.381     0.000
  YS02001652              0.01     16.76      0  01:58       0.000     0.000
  YS02001770              0.01      9.20      0  01:59       0.000     0.000
  YS02001779              0.17    499.34      0  02:02       0.180     0.000
  YS02001890              0.19    341.66      0  02:01       0.115     0.000
  YS02001907              0.37   1969.61      0  02:02       1.382     0.000
  YS02001918              0.01    139.28      0  01:57       0.002     0.000
  YS02001920              0.01     47.52      0  01:57       0.000     0.000
  YS02001923              0.01     59.93      0  01:57       0.000     0.000
  YS02001926              0.01     32.24      0  01:57       0.000     0.000
  YS02001929              0.01    306.82      0  01:57       0.002     0.000
  
  
  **********************
  Storage Volume Summary
  **********************
  
  ------------------------------------------------------------------------------------------------
                         Average    Avg   Evap  Exfil     Maximum    Max    Time of Max    Maximum
                          Volume   Pcnt   Pcnt   Pcnt      Volume   Pcnt     Occurrence    Outflow
  Storage Unit           1000 m³   Full   Loss   Loss     1000 m³   Full    days hr:min        LPS
  ------------------------------------------------------------------------------------------------
  CC-storage               2.162   33.7    0.0    0.0       4.436   69.2       0  02:31    1783.53
  JK-storage               0.076   26.1    0.0    0.0       0.211   72.6       0  02:15    2300.00
  
  
  ***********************
  Outfall Loading Summary
  ***********************
  
  -----------------------------------------------------------
                         Flow       Avg       Max       Total
                         Freq      Flow      Flow      Volume
  Outfall Node           Pcnt       LPS       LPS    10^6 ltr
  -----------------------------------------------------------
  CC-1                  43.66    683.00    683.00       4.838
  CC-2                  40.29    683.00    683.00       4.237
  JK-1                  12.44   1000.00   1000.00       2.051
  JK-2                   7.51   1000.00   1000.00       1.231
  WSC                   99.94    199.69    551.28       4.039
  -----------------------------------------------------------
  System                40.77   3565.69   3835.04      16.396
  
  
  ********************
  Link Flow Summary
  ********************
  
  -----------------------------------------------------------------------------
                                 Maximum  Time of Max   Maximum    Max/    Max/
                                  |Flow|   Occurrence   |Veloc|    Full    Full
  Link                 Type          LPS  days hr:min     m/sec    Flow   Depth
  -----------------------------------------------------------------------------
  1                    CONDUIT    551.28     0  02:40      2.82    0.19    0.30
  WS02003060WS02003069 CONDUIT    550.52     0  02:38      1.64    0.22    0.34
  WS02003066WSF200     CONDUIT    533.95     0  02:38      2.85    0.09    0.22
  WS02003067WS02003066 CONDUIT    533.88     0  02:38      1.20    0.17    0.41
  WS02003069WS02003072 CONDUIT    550.39     0  02:39      1.37    0.26    0.39
  WS02003072WS02003073 CONDUIT    550.01     0  02:39      1.43    1.19    0.37
  WS02004401WS02004402 CONDUIT    537.66     0  02:35      1.07    0.65    0.89
  WS02004402WS02004403 CONDUIT    537.25     0  02:35      1.08    0.77    0.91
  WS02004403WS02004404 CONDUIT    551.62     0  02:34      1.06    0.40    0.96
  WS02004404WS02004405 CONDUIT    601.94     0  02:33      1.23    5.90    0.97
  WS02004405WS02004406 CONDUIT    540.46     0  02:35      1.20    1.07    0.96
  WS02004406WS02004407 CONDUIT    536.45     0  02:35      1.04    0.24    0.63
  WS02004407WS02004409 CONDUIT    535.96     0  02:36      1.46    0.19    0.48
  WS02004409WS02004410 CONDUIT    535.25     0  02:36      0.96    0.69    0.67
  WS02004410WS02004411 CONDUIT    534.76     0  02:36      0.94    0.73    0.68
  WS02004411WS02004412 CONDUIT    534.29     0  02:37      0.92    0.76    0.69
  WS02004412WS02004413 CONDUIT    534.18     0  02:37      0.90    0.36    0.78
  WS02004413WS02003067 CONDUIT    533.78     0  02:37      1.11    0.23    0.59
  WS02006109WS02006110 CONDUIT    584.34     0  03:01      1.16    1.12    1.00
  WS02006110WS02006113 CONDUIT    598.34     0  03:01      1.43    0.54    0.79
  WS02006111WS02006112 CONDUIT    553.72     0  03:01      1.84    0.26    0.68
  WS02006112WS02006115 CONDUIT    578.53     0  03:01      0.83    0.34    0.88
  WS02006113WS02006111 CONDUIT    574.69     0  03:01      2.50    0.69    0.47
  WS02006115WS02006116 CONDUIT    553.21     0  03:02      1.11    0.71    0.78
  WS02006116WS02004401 CONDUIT    542.56     0  03:02      1.07    0.75    0.86
  WS02006228WS02006109 CONDUIT    579.73     0  03:01      1.15    2.53    1.00
  WS02006229WS02006228 CONDUIT    573.06     0  03:01      1.14    1.90    1.00
  WS02006230WS02006229 CONDUIT    568.01     0  03:01      1.48   12.64    1.00
  WS02006231WS02006230 CONDUIT    574.13     0  02:11      1.56    8.71    1.00
  WS02006232WS02006231 CONDUIT    576.74     0  02:45      1.51    1.21    1.00
  WS02006234WS02006232 CONDUIT    575.91     0  02:45      1.50    1.17    1.00
  WS02006235WS02006234 CONDUIT    570.57     0  02:45      1.48    6.02    1.00
  WS02006238WS02006235 CONDUIT    425.45     0  02:35      1.47    0.95    1.00
  WS02006239WS02006238 CONDUIT    425.81     0  02:35      1.11    1.36    1.00
  WS02006240WS02006239 CONDUIT    424.31     0  03:02      1.24    1.34    1.00
  WS02006242WS02006240 CONDUIT    422.50     0  03:02      1.13    1.68    1.00
  WS02006243WS02006242 CONDUIT    422.94     0  03:02      1.40    0.90    1.00
  WS02006245WS02006243 CONDUIT    422.22     0  03:02      1.45    1.25    1.00
  WS02006247WS02006245 CONDUIT    421.41     0  02:35      1.43    3.34    1.00
  WS02006248WS02006247 CONDUIT    421.63     0  02:35      1.44    0.92    1.00
  WS02006249WS02006248 CONDUIT    421.19     0  02:35      1.39    2.31    1.00
  WS02006251WS02006249 CONDUIT    497.15     0  01:55      2.07    1.43    1.00
  WS02006252WS02006251 CONDUIT    407.87     0  02:04     25.69    1.50    1.00
  WS02006256WS02006235 CONDUIT    288.91     0  00:00      4.23    3.06    1.00
  WSF200WS02003060     CONDUIT    534.14     0  02:38      2.06    0.12    0.28
  YS02001580YS02001583 CONDUIT    122.02     0  01:53      0.66    0.47    1.00
  YS02001583YS02001586 CONDUIT    157.42     0  01:53      0.66    0.24    1.00
  YS02001586YS02001590 CONDUIT    317.97     0  02:13      1.25    0.56    1.00
  YS02001590YS02001593 CONDUIT    318.11     0  02:14      1.13    2.00    1.00
  YS02001593YS02001596 CONDUIT    317.99     0  02:14      1.75    0.50    1.00
  YS02001596YS02001600 CONDUIT    318.12     0  02:25      1.24    0.62    1.00
  YS02001600YS02001601 CONDUIT    318.44     0  02:25      1.13    0.55    1.00
  YS02001601YS02001602 CONDUIT    519.80     0  01:52      1.84    1.88    1.00
  YS02001602YS02001605 CONDUIT    519.24     0  01:52      1.84   10.99    1.00
  YS02001605YS02001607 CONDUIT    518.84     0  01:52      1.84    2.85    1.00
  YS02001607YS02001610 CONDUIT    521.28     0  01:52      0.66    0.50    1.00
  YS02001610YS02001613 CONDUIT    521.80     0  01:52      0.66    0.60    1.00
  YS02001613YS02001616 CONDUIT    519.01     0  01:52      0.67    0.44    1.00
  YS02001616YS02001619 CONDUIT    515.80     0  01:53      0.67    0.90    1.00
  YS02001619YS02001622 CONDUIT    951.31     0  02:02      1.21    1.40    1.00
  YS02001622YS02001625 CONDUIT    952.38     0  02:02      1.21    0.51    1.00
  YS02001625YS02001629 CONDUIT    941.76     0  01:53      1.20    0.45    1.00
  YS02001629YS02163301 CONDUIT    929.72     0  01:55      1.18    1.14    1.00
  YS02001633YS02163601 CONDUIT   1400.31     0  01:56      1.78    1.47    1.00
  YS02001641YS02001644 CONDUIT   1396.20     0  01:56      1.78    4.51    1.00
  YS02001644YS02001647 CONDUIT   1831.58     0  01:56      2.33    1.08    1.00
  YS02001647YS02001649 CONDUIT   1840.11     0  01:56      2.38    0.97    1.00
  YS02001649YS02001757 CONDUIT   2104.07     0  01:56      2.68    1.28    1.00
  YS02001652YS02001649 CONDUIT    891.31     0  02:02      1.13    0.44    1.00
  YS02001655YS02001652 CONDUIT    891.19     0  02:02      1.35    0.43    1.00
  YS02001658YS02001655 CONDUIT    890.93     0  02:02      1.92    0.38    1.00
  YS02001661YS02001658 CONDUIT    890.21     0  02:02      2.35    0.35    1.00
  YS02001664YS02001661 CONDUIT    889.90     0  02:02      2.38    0.28    0.80
  YS02001745YS02001748 CONDUIT    619.77     0  01:58      2.23    0.24    0.91
  YS02001748YS02001751 CONDUIT    595.85     0  02:01      1.75    0.30    1.00
  YS02001751YS02001754 CONDUIT    595.96     0  02:01      1.45    0.29    1.00
  YS02001754YS02001757 CONDUIT    596.14     0  02:01      0.76    0.24    1.00
  YS02001757CaochengTiaoxuchi CONDUIT   3539.47     0  02:01      4.59    1.53    1.00
  YS02001759YS02001757 CONDUIT   1439.26     0  02:01      1.83    1.02    1.00
  YS02001762YS02001759 CONDUIT    793.54     0  01:58      1.01    0.91    1.00
  YS02001765YS02001762 CONDUIT    797.41     0  01:58      1.02    0.75    1.00
  YS02001767YS02001765 CONDUIT    800.72     0  01:58      1.02    1.01    1.00
  YS02001770YS02001767 CONDUIT    801.44     0  01:58      1.02    3.17    1.00
  YS02001774YS02001770 CONDUIT    499.24     0  02:02      0.64    0.32    1.00
  YS02001779YS02001774 CONDUIT    499.47     0  02:02      0.64    0.25    1.00
  YS02001783YS02001784 CONDUIT   1165.86     0  02:00      2.32    1.61    1.00
  YS02001784YS02001785 CONDUIT   1166.96     0  02:01      2.32    2.72    1.00
  YS02001786YS02001788 CONDUIT   1166.94     0  02:01      2.48    2.25    0.89
  YS02001788YS02001790 CONDUIT   1175.52     0  01:59      2.72    0.87    0.84
  YS02001790YS02001791 CONDUIT   1285.33     0  02:05      3.43    1.40    0.70
  YS02001791YS02001793 CONDUIT   1253.32     0  01:59      6.73    0.54    0.44
  YS02001793JiankangQianchi CONDUIT   1244.21     0  01:58      2.50    0.10    0.65
  YS02001882YS02001884 CONDUIT     50.53     0  01:54      0.13    0.06    1.00
  YS02001884YS02001887 CONDUIT     75.21     0  01:54      0.10    0.10    1.00
  YS02001887YS02001890 CONDUIT    856.28     0  02:01      1.09    1.47    1.00
  YS02001890YS02001895 CONDUIT    518.24     0  02:05      0.66    0.24    1.00
  YS02001895YS02001898 CONDUIT    518.70     0  02:05      0.66    0.90    1.00
  YS02001898YS02001901 CONDUIT    518.06     0  02:05      0.66    0.33    1.00
  YS02001901YS02001904 CONDUIT    518.06     0  02:06      0.66    0.80    1.00
  YS02001904YS02001907 CONDUIT    517.99     0  02:05      0.66    0.18    1.00
  YS02001907YS02006553 CONDUIT    797.54     0  02:20      0.89    0.94    1.00
  YS02001910YS02001907 CONDUIT   1484.53     0  02:02      1.89    0.84    1.00
  YS02001915YS02001910 CONDUIT   1484.37     0  02:02      1.89    0.74    1.00
  YS02001918YS02001915 CONDUIT    499.32     0  02:02      0.64    0.28    1.00
  YS02001920YS02001918 CONDUIT    499.32     0  02:02      0.64    0.48    1.00
  YS02001923YS02001920 CONDUIT    496.49     0  02:02      0.69    0.22    1.00
  YS02001926YS02001923 CONDUIT    499.50     0  02:02      0.96    0.71    1.00
  YS02001929YS02001926 CONDUIT    498.97     0  02:02      1.12    0.24    1.00
  YS02006553YS02006556 CONDUIT    797.45     0  02:19      1.02    0.68    1.00
  YS02006556YS02006558 CONDUIT    798.77     0  02:19      1.02    0.63    1.00
  YS02006558YS02006561 CONDUIT   1165.97     0  02:01      4.12    2.58    1.00
  YS02006561YS02001783 CONDUIT   1165.81     0  02:01      2.32    0.60    1.00
  YS02163301YS02001633 CONDUIT    929.05     0  01:55      1.18    0.87    1.00
  YS02163601YS02164001 CONDUIT   1398.93     0  01:56      1.78    1.24    1.00
  YS02164001YS02001641 CONDUIT   1395.86     0  01:56      1.78    1.91    1.00
  CC-R1                PUMP       683.00     0  00:00              1.00
  CC-R2                PUMP       683.00     0  00:00              1.00
  CC-S1                PUMP       200.00     0  00:00              1.00
  CC-S2                PUMP       200.00     0  00:00              1.00
  JK-R1                PUMP      1000.00     0  00:00              1.00
  JK-R2                PUMP      1000.00     0  00:00              1.00
  JK-S                 PUMP       300.00     0  00:00              1.00
  
  
  ***************************
  Flow Classification Summary
  ***************************
  
  -------------------------------------------------------------------------------------
                      Adjusted    ---------- Fraction of Time in Flow Class ---------- 
                       /Actual         Up    Down  Sub   Sup   Up    Down  Norm  Inlet 
  Conduit               Length    Dry  Dry   Dry   Crit  Crit  Crit  Crit  Ltd   Ctrl  
  -------------------------------------------------------------------------------------
  1                       1.00   0.00  0.00  0.00  0.00  1.00  0.00  0.00  0.31  0.00
  WS02003060WS02003069    1.00   0.00  0.00  0.00  0.97  0.03  0.00  0.00  0.77  0.00
  WS02003066WSF200        1.00   0.06  0.00  0.00  0.00  0.94  0.00  0.00  0.87  0.00
  WS02003067WS02003066    1.00   0.06  0.01  0.00  0.94  0.00  0.00  0.00  0.00  0.00
  WS02003069WS02003072    1.00   0.00  0.00  0.00  0.99  0.01  0.00  0.00  0.80  0.00
  WS02003072WS02003073    1.00   0.00  0.00  0.00  0.00  0.00  0.00  1.00  0.00  0.00
  WS02004401WS02004402    1.00   0.02  0.00  0.00  0.98  0.00  0.00  0.00  0.00  0.00
  WS02004402WS02004403    1.00   0.02  0.00  0.00  0.97  0.00  0.00  0.00  0.00  0.00
  WS02004403WS02004404    1.00   0.00  0.03  0.00  0.97  0.00  0.00  0.00  0.00  0.00
  WS02004404WS02004405    1.00   0.00  0.00  0.00  1.00  0.00  0.00  0.00  0.01  0.00
  WS02004405WS02004406    1.00   0.00  0.00  0.00  1.00  0.00  0.00  0.00  0.00  0.00
  WS02004406WS02004407    1.00   0.00  0.04  0.00  0.96  0.00  0.00  0.00  0.00  0.00
  WS02004407WS02004409    1.00   0.04  0.00  0.00  0.95  0.01  0.00  0.00  0.96  0.00
  WS02004409WS02004410    1.00   0.04  0.00  0.00  0.96  0.00  0.00  0.00  0.00  0.00
  WS02004410WS02004411    1.00   0.04  0.00  0.00  0.96  0.00  0.00  0.00  0.00  0.00
  WS02004411WS02004412    1.00   0.04  0.00  0.00  0.96  0.00  0.00  0.00  0.00  0.00
  WS02004412WS02004413    1.00   0.04  0.00  0.00  0.95  0.00  0.00  0.00  0.00  0.00
  WS02004413WS02003067    1.00   0.04  0.01  0.00  0.00  0.00  0.94  0.00  0.00  0.00
  WS02006109WS02006110    1.00   0.00  0.01  0.00  0.98  0.00  0.01  0.00  0.00  0.00
  WS02006110WS02006113    1.00   0.01  0.01  0.00  0.98  0.00  0.00  0.00  0.00  0.00
  WS02006111WS02006112    1.00   0.02  0.00  0.00  0.98  0.00  0.00  0.00  0.98  0.00
  WS02006112WS02006115    1.00   0.02  0.00  0.00  0.97  0.00  0.00  0.00  0.00  0.00
  WS02006113WS02006111    1.00   0.02  0.00  0.00  0.00  0.98  0.00  0.00  0.12  0.00
  WS02006115WS02006116    1.00   0.02  0.00  0.00  0.97  0.00  0.00  0.01  0.00  0.00
  WS02006116WS02004401    1.00   0.02  0.00  0.00  0.98  0.00  0.00  0.00  0.00  0.00
  WS02006228WS02006109    1.00   0.00  0.00  0.00  1.00  0.00  0.00  0.00  0.00  0.00
  WS02006229WS02006228    1.00   0.00  0.00  0.00  0.99  0.00  0.00  0.01  0.00  0.00
  WS02006230WS02006229    1.00   0.00  0.00  0.00  0.99  0.00  0.00  0.01  0.03  0.00
  WS02006231WS02006230    1.00   0.00  0.00  0.00  0.20  0.00  0.80  0.00  0.00  0.00
  WS02006232WS02006231    1.00   0.00  0.00  0.00  0.99  0.00  0.01  0.00  0.00  0.00
  WS02006234WS02006232    1.00   0.00  0.00  0.00  1.00  0.00  0.00  0.00  0.04  0.00
  WS02006235WS02006234    1.00   0.00  0.00  0.00  0.88  0.00  0.12  0.00  0.00  0.00
  WS02006238WS02006235    1.00   0.00  0.00  0.00  1.00  0.00  0.00  0.00  0.00  0.00
  WS02006239WS02006238    1.00   0.00  0.00  0.00  1.00  0.00  0.00  0.00  0.20  0.00
  WS02006240WS02006239    1.00   0.00  0.00  0.00  0.67  0.00  0.00  0.33  0.03  0.00
  WS02006242WS02006240    1.00   0.00  0.00  0.00  0.99  0.00  0.01  0.00  0.00  0.00
  WS02006243WS02006242    1.00   0.00  0.00  0.00  0.99  0.00  0.00  0.01  0.66  0.00
  WS02006245WS02006243    1.00   0.00  0.00  0.00  0.76  0.00  0.00  0.24  0.01  0.00
  WS02006247WS02006245    1.00   0.00  0.00  0.00  0.95  0.00  0.00  0.05  0.00  0.00
  WS02006248WS02006247    1.00   0.00  0.00  0.00  0.98  0.00  0.00  0.02  0.55  0.00
  WS02006249WS02006248    1.00   0.00  0.00  0.00  0.41  0.00  0.59  0.00  0.00  0.00
  WS02006251WS02006249    1.00   0.00  0.00  0.00  0.99  0.01  0.00  0.00  0.62  0.00
  WS02006252WS02006251    1.00   0.00  0.57  0.00  0.06  0.00  0.38  0.00  0.00  0.00
  WS02006256WS02006235    1.00   0.00  0.00  0.00  0.98  0.02  0.00  0.00  0.00  0.00
  WSF200WS02003060        1.00   0.00  0.06  0.00  0.41  0.52  0.00  0.00  0.71  0.00
  YS02001580YS02001583    1.00   0.23  0.57  0.00  0.20  0.00  0.00  0.00  0.66  0.00
  YS02001583YS02001586    1.00   0.42  0.33  0.00  0.25  0.00  0.00  0.00  0.66  0.00
  YS02001586YS02001590    1.00   0.13  0.00  0.00  0.43  0.04  0.00  0.40  0.36  0.00
  YS02001590YS02001593    1.00   0.13  0.01  0.00  0.12  0.00  0.74  0.00  0.00  0.00
  YS02001593YS02001596    1.00   0.13  0.00  0.00  0.14  0.01  0.00  0.72  0.02  0.00
  YS02001596YS02001600    1.00   0.14  0.00  0.00  0.20  0.01  0.00  0.65  0.04  0.00
  YS02001600YS02001601    1.00   0.13  0.01  0.00  0.86  0.00  0.00  0.00  0.60  0.00
  YS02001601YS02001602    1.00   0.13  0.01  0.00  0.87  0.00  0.00  0.00  0.00  0.00
  YS02001602YS02001605    1.00   0.14  0.00  0.00  0.86  0.00  0.00  0.00  0.00  0.00
  YS02001605YS02001607    1.00   0.14  0.00  0.00  0.86  0.00  0.00  0.00  0.00  0.00
  YS02001607YS02001610    1.00   0.13  0.01  0.00  0.86  0.00  0.00  0.00  0.01  0.00
  YS02001610YS02001613    1.00   0.13  0.00  0.00  0.87  0.00  0.00  0.00  0.00  0.00
  YS02001613YS02001616    1.00   0.13  0.00  0.00  0.87  0.00  0.00  0.00  0.00  0.00
  YS02001616YS02001619    1.00   0.13  0.00  0.00  0.87  0.00  0.00  0.00  0.00  0.00
  YS02001619YS02001622    1.00   0.13  0.00  0.00  0.87  0.00  0.00  0.00  0.28  0.00
  YS02001622YS02001625    1.00   0.13  0.00  0.00  0.87  0.00  0.00  0.00  0.04  0.00
  YS02001625YS02001629    1.00   0.13  0.05  0.00  0.17  0.00  0.66  0.00  0.00  0.00
  YS02001629YS02163301    1.00   0.15  0.01  0.00  0.84  0.00  0.00  0.00  0.00  0.00
  YS02001633YS02163601    1.00   0.00  0.01  0.00  0.99  0.00  0.00  0.00  0.15  0.00
  YS02001641YS02001644    1.00   0.00  0.01  0.00  0.99  0.00  0.00  0.00  0.00  0.00
  YS02001644YS02001647    1.00   0.00  0.17  0.00  0.83  0.00  0.00  0.00  0.00  0.00
  YS02001647YS02001649    1.00   0.00  0.17  0.00  0.55  0.27  0.00  0.00  0.57  0.00
  YS02001649YS02001757    1.00   0.00  0.00  0.00  0.69  0.31  0.00  0.00  0.46  0.00
  YS02001652YS02001649    1.00   0.00  0.00  0.00  0.97  0.03  0.00  0.00  0.74  0.00
  YS02001655YS02001652    1.00   0.00  0.00  0.00  0.19  0.01  0.00  0.80  0.05  0.00
  YS02001658YS02001655    1.00   0.00  0.14  0.00  0.66  0.20  0.00  0.00  0.68  0.00
  YS02001661YS02001658    1.00   0.14  0.00  0.00  0.50  0.36  0.00  0.00  0.69  0.00
  YS02001664YS02001661    1.00   0.13  0.00  0.00  0.76  0.11  0.00  0.00  0.85  0.00
  YS02001745YS02001748    1.00   0.00  0.00  0.00  0.10  0.01  0.00  0.90  0.05  0.00
  YS02001748YS02001751    1.00   0.00  0.00  0.00  0.82  0.18  0.00  0.00  0.77  0.00
  YS02001751YS02001754    1.00   0.00  0.00  0.00  0.17  0.01  0.00  0.83  0.04  0.00
  YS02001754YS02001757    1.00   0.00  0.00  0.00  1.00  0.00  0.00  0.00  0.82  0.00
  YS02001757CaochengTiaoxuchi    1.00   0.00  0.00  0.00  0.95  0.05  0.00  0.00  0.79  0.00
  YS02001759YS02001757    1.00   0.00  0.00  0.00  1.00  0.00  0.00  0.00  0.60  0.00
  YS02001762YS02001759    1.00   0.00  0.00  0.00  1.00  0.00  0.00  0.00  0.04  0.00
  YS02001765YS02001762    1.00   0.00  0.00  0.00  1.00  0.00  0.00  0.00  0.73  0.00
  YS02001767YS02001765    1.00   0.00  0.00  0.00  1.00  0.00  0.00  0.00  0.00  0.00
  YS02001770YS02001767    1.00   0.00  0.00  0.00  1.00  0.00  0.00  0.00  0.00  0.00
  YS02001774YS02001770    1.00   0.00  0.13  0.00  0.70  0.00  0.17  0.00  0.03  0.00
  YS02001779YS02001774    1.00   0.00  0.00  0.00  1.00  0.00  0.00  0.00  0.77  0.00
  YS02001783YS02001784    1.00   0.00  0.18  0.00  0.82  0.00  0.00  0.00  0.55  0.00
  YS02001784YS02001785    1.00   0.00  0.00  0.00  1.00  0.00  0.00  0.00  0.17  0.00
  YS02001786YS02001788    1.00   0.00  0.00  0.00  0.80  0.20  0.00  0.00  0.00  0.00
  YS02001788YS02001790    1.00   0.00  0.00  0.00  0.21  0.79  0.00  0.00  0.80  0.00
  YS02001790YS02001791    1.00   0.00  0.00  0.00  0.01  0.99  0.00  0.00  0.16  0.00
  YS02001791YS02001793    1.00   0.00  0.00  0.00  0.00  1.00  0.00  0.00  0.01  0.00
  YS02001793JiankangQianchi    1.00   0.00  0.00  0.00  0.98  0.02  0.00  0.00  0.95  0.00
  YS02001882YS02001884    1.00   0.15  0.01  0.00  0.84  0.00  0.00  0.00  0.00  0.00
  YS02001884YS02001887    1.00   0.06  0.05  0.00  0.89  0.00  0.00  0.00  0.00  0.00
  YS02001887YS02001890    1.00   0.00  0.00  0.00  0.97  0.00  0.03  0.00  0.00  0.00
  YS02001890YS02001895    1.00   0.00  0.16  0.00  0.84  0.00  0.00  0.00  0.00  0.00
  YS02001895YS02001898    1.00   0.16  0.00  0.00  0.82  0.00  0.02  0.00  0.00  0.00
  YS02001898YS02001901    1.00   0.17  0.00  0.00  0.83  0.00  0.00  0.00  0.01  0.00
  YS02001901YS02001904    1.00   0.17  0.00  0.00  0.83  0.00  0.00  0.00  0.00  0.00
  YS02001904YS02001907    1.00   0.00  0.16  0.00  0.83  0.00  0.00  0.00  0.00  0.00
  YS02001907YS02006553    1.00   0.00  0.02  0.00  0.98  0.00  0.00  0.00  0.00  0.00
  YS02001910YS02001907    1.00   0.00  0.00  0.00  0.97  0.00  0.00  0.03  0.12  0.00
  YS02001915YS02001910    1.00   0.00  0.00  0.00  0.97  0.03  0.00  0.00  0.16  0.00
  YS02001918YS02001915    1.00   0.00  0.01  0.00  0.98  0.02  0.00  0.00  0.75  0.00
  YS02001920YS02001918    1.00   0.00  0.01  0.00  0.99  0.00  0.00  0.00  0.00  0.00
  YS02001923YS02001920    1.00   0.00  0.00  0.00  1.00  0.00  0.00  0.00  0.92  0.00
  YS02001926YS02001923    1.00   0.00  0.07  0.00  0.06  0.00  0.86  0.00  0.00  0.00
  YS02001929YS02001926    1.00   0.00  0.13  0.00  0.87  0.00  0.00  0.00  0.82  0.00
  YS02006553YS02006556    1.00   0.01  0.00  0.00  0.99  0.00  0.00  0.00  0.03  0.00
  YS02006556YS02006558    1.00   0.00  0.00  0.00  1.00  0.00  0.00  0.00  0.00  0.00
  YS02006558YS02006561    1.00   0.18  0.00  0.00  0.06  0.76  0.00  0.00  0.18  0.00
  YS02006561YS02001783    1.00   0.18  0.00  0.00  0.09  0.73  0.00  0.00  0.68  0.00
  YS02163301YS02001633    1.00   0.00  0.15  0.00  0.85  0.00  0.00  0.00  0.00  0.00
  YS02163601YS02164001    1.00   0.00  0.08  0.00  0.92  0.00  0.00  0.00  0.00  0.00
  YS02164001YS02001641    1.00   0.01  0.07  0.00  0.92  0.00  0.00  0.00  0.06  0.00
  
  
  *************************
  Conduit Surcharge Summary
  *************************
  
  ----------------------------------------------------------------------------
                                                           Hours        Hours 
                         --------- Hours Full --------   Above Full   Capacity
  Conduit                Both Ends  Upstream  Dnstream   Normal Flow   Limited
  ----------------------------------------------------------------------------
  WS02003072WS02003073        0.01      0.01      0.01      0.62         0.01
  WS02004403WS02004404        0.01      0.01      0.01      0.01         0.01
  WS02004404WS02004405        0.01      0.01      0.01      2.27         0.01
  WS02004405WS02004406        0.01      0.01      0.01      0.26         0.01
  WS02006109WS02006110        0.31      0.31      1.42      0.39         0.01
  WS02006110WS02006113        0.01      0.01      1.38      0.01         0.01
  WS02006111WS02006112        0.01      0.01      1.62      0.01         0.01
  WS02006112WS02006115        0.01      0.01      0.42      0.01         0.01
  WS02006228WS02006109        1.32      1.42      1.32      1.80         1.32
  WS02006229WS02006228        1.30      1.33      1.30      1.69         1.30
  WS02006230WS02006229        1.52      1.65      1.52      3.13         1.52
  WS02006231WS02006230        0.33      0.33      0.43      2.55         0.01
  WS02006232WS02006231        0.40      0.40      1.42      0.44         0.01
  WS02006234WS02006232        1.29      1.29      1.42      0.43         0.43
  WS02006235WS02006234        0.60      0.61      1.33      2.33         0.01
  WS02006238WS02006235        1.35      1.35      1.43      0.01         0.01
  WS02006239WS02006238        1.37      1.40      1.38      1.41         1.24
  WS02006240WS02006239        1.31      1.33      1.32      1.40         1.17
  WS02006242WS02006240        1.32      1.32      1.41      1.63         0.01
  WS02006243WS02006242        1.34      1.34      1.38      0.01         0.03
  WS02006245WS02006243        1.32      1.33      1.32      1.08         1.01
  WS02006247WS02006245        1.32      1.34      1.32      1.99         1.31
  WS02006248WS02006247        1.32      1.32      1.33      0.01         0.03
  WS02006249WS02006248        1.31      1.31      1.31      1.95         0.01
  WS02006251WS02006249        1.31      1.31      1.31      1.55         1.26
  WS02006252WS02006251        1.67      1.67      1.70      1.68         0.01
  WS02006256WS02006235        2.36      2.41      6.36      0.94         0.01
  YS02001580YS02001583        0.65      0.65      0.70      0.01         0.01
  YS02001583YS02001586        0.66      0.66      0.78      0.01         0.01
  YS02001586YS02001590        0.79      0.79      0.85      0.01         0.01
  YS02001590YS02001593        0.86      0.86      0.87      0.90         0.01
  YS02001593YS02001596        0.87      0.87      0.97      0.01         0.01
  YS02001596YS02001600        1.01      1.01      1.12      0.01         0.01
  YS02001600YS02001601        1.19      1.19      1.46      0.01         0.01
  YS02001601YS02001602        1.37      1.37      1.50      1.13         0.01
  YS02001602YS02001605        1.32      1.32      1.37      2.27         0.01
  YS02001605YS02001607        1.27      1.32      1.27      1.43         1.27
  YS02001607YS02001610        0.83      0.83      0.85      0.01         0.01
  YS02001610YS02001613        0.82      0.82      0.85      0.01         0.01
  YS02001613YS02001616        0.78      0.78      0.82      0.01         0.01
  YS02001616YS02001619        0.77      0.77      0.78      0.01         0.02
  YS02001619YS02001622        0.76      0.77      0.76      0.88         0.74
  YS02001622YS02001625        0.76      0.76      0.94      0.01         0.01
  YS02001625YS02001629        0.71      0.71      0.94      0.01         0.01
  YS02001629YS02163301        0.94      0.94      0.94      0.22         0.20
  YS02001633YS02163601        0.96      0.96      0.99      0.40         0.39
  YS02001641YS02001644        0.86      0.90      0.86      1.53         0.85
  YS02001644YS02001647        0.64      0.64      0.86      0.05         0.01
  YS02001647YS02001649        0.64      0.64      0.77      0.01         0.01
  YS02001649YS02001757        0.76      0.77      0.82      0.09         0.07
  YS02001652YS02001649        0.58      0.58      0.77      0.01         0.01
  YS02001655YS02001652        0.40      0.40      0.56      0.01         0.01
  YS02001658YS02001655        0.22      0.22      0.40      0.01         0.01
  YS02001661YS02001658        0.03      0.03      0.22      0.01         0.01
  YS02001664YS02001661        0.01      0.01      0.09      0.01         0.01
  YS02001745YS02001748        0.01      0.01      0.14      0.01         0.01
  YS02001748YS02001751        0.19      0.19      0.28      0.01         0.01
  YS02001751YS02001754        0.28      0.28      0.45      0.01         0.01
  YS02001754YS02001757        0.50      0.50      0.82      0.01         0.01
  YS02001757CaochengTiaoxuchi        0.74      0.82      1.30      0.42         0.29
  YS02001759YS02001757        0.73      0.73      0.82      0.03         0.05
  YS02001762YS02001759        0.69      0.69      0.73      0.01         0.02
  YS02001765YS02001762        0.64      0.64      0.69      0.01         0.01
  YS02001767YS02001765        0.61      0.61      0.65      0.01         0.02
  YS02001770YS02001767        0.61      0.61      0.61      0.58         0.45
  YS02001774YS02001770        0.58      0.58      0.68      0.01         0.01
  YS02001779YS02001774        0.45      0.45      0.68      0.01         0.01
  YS02001783YS02001784        0.55      0.57      0.55      0.72         0.55
  YS02001784YS02001785        0.44      0.55      0.44      0.96         0.44
  YS02001786YS02001788        0.01      0.44      0.01      0.82         0.01
  YS02001790YS02001791        0.01      0.01      0.01      0.53         0.01
  YS02001793JiankangQianchi        0.01      0.01      6.73      0.01         0.01
  YS02001882YS02001884        0.52      0.52      0.53      0.01         0.01
  YS02001884YS02001887        0.55      0.55      0.56      0.01         0.01
  YS02001887YS02001890        0.57      0.57      0.59      0.13         0.01
  YS02001890YS02001895        0.51      0.51      0.60      0.01         0.01
  YS02001895YS02001898        0.50      0.50      0.51      0.01         0.01
  YS02001898YS02001901        0.51      0.51      0.55      0.01         0.01
  YS02001901YS02001904        0.54      0.54      0.55      0.01         0.01
  YS02001904YS02001907        0.54      0.54      0.81      0.01         0.01
  YS02001907YS02006553        0.97      0.97      1.04      0.01         0.01
  YS02001910YS02001907        0.60      0.60      0.79      0.01         0.01
  YS02001915YS02001910        0.51      0.51      0.60      0.01         0.01
  YS02001918YS02001915        0.43      0.43      0.51      0.01         0.01
  YS02001920YS02001918        0.43      0.43      0.44      0.01         0.01
  YS02001923YS02001920        0.38      0.38      0.44      0.01         0.01
  YS02001926YS02001923        0.12      0.12      0.15      0.01         0.01
  YS02001929YS02001926        0.01      0.01      0.15      0.01         0.01
  YS02006553YS02006556        0.69      0.69      0.80      0.01         0.01
  YS02006556YS02006558        0.75      0.75      0.82      0.01         0.01
  YS02006558YS02006561        0.46      0.68      0.46      0.91         0.46
  YS02006561YS02001783        0.39      0.39      0.57      0.01         0.01
  YS02163301YS02001633        0.94      0.94      0.98      0.01         0.01
  YS02163601YS02164001        0.90      0.90      0.99      0.08         0.01
  YS02164001YS02001641        0.90      0.90      0.90      0.75         0.68
  
  
  ***************
  Pumping Summary
  ***************
  
  ---------------------------------------------------------------------------------------------------------
                                                  Min       Avg       Max     Total     Power    % Time Off
                        Percent   Number of      Flow      Flow      Flow    Volume     Usage    Pump Curve
  Pump                 Utilized   Start-Ups       LPS       LPS       LPS  10^6 ltr     Kw-hr    Low   High
  ---------------------------------------------------------------------------------------------------------
  CC-R1                   24.67          27      0.00    683.00    683.00     4.854     87.67    0.0   34.9
  CC-R2                   21.60          22      0.00    683.00    683.00     4.248     76.71    0.0   39.6
  CC-S1                   25.22          24      0.00    200.00    200.00     1.452      8.53    0.0    0.0
  CC-S2                   22.57          28      0.00    200.00    200.00     1.300      7.58    0.0    0.0
  JK-R1                    7.12          17      0.00   1000.00   1000.00     2.050     20.57    0.0    0.0
  JK-R2                    4.28          14      0.00   1000.00   1000.00     1.231     10.70    0.0    0.0
  JK-S                    11.31          36      0.00    300.00    300.00     0.977     16.95    0.0    0.0
  

  Analysis begun on:  Mon Dec 30 10:19:05 2024
  Analysis ended on:  Mon Dec 30 10:19:07 2024
  Total elapsed time: 00:00:02