
  EPA STORM WATER MANAGEMENT MODEL - VERSION 5.2 (Build 5.2.4)
  PYSWMM TOOLKIT API - VERSION v1.0 (2023-11-27)
  ------------------------------------------------------------

  WARNING 04: minimum elevation drop used for Conduit WS02004404WS02004405
  WARNING 03: negative offset ignored for Link YS02001904YS02001907
  
  ****************
  Analysis Options
  ****************
  Flow Units ............... LPS
  Process Models:
    Rainfall/Runoff ........ YES
    RDII ................... NO
    Snowmelt ............... NO
    Groundwater ............ NO
    Flow Routing ........... YES
    Ponding Allowed ........ NO
    Water Quality .......... NO
  Infiltration Method ...... HORTON
  Flow Routing Method ...... DYNWAVE
  Surcharge Method ......... EXTRAN
  Starting Date ............ 08/28/2015 08:00:00
  Ending Date .............. 08/28/2015 16:00:00
  Antecedent Dry Days ...... 8.0
  Report Time Step ......... 00:01:00
  Wet Time Step ............ 00:01:00
  Dry Time Step ............ 00:01:00
  Routing Time Step ........ 30.00 sec
  Variable Time Step ....... YES
  Maximum Trials ........... 8
  Number of Threads ........ 4
  Head Tolerance ........... 0.001500 m
  
  
  **************************        Volume         Depth
  Runoff Quantity Continuity     hectare-m            mm
  **************************     ---------       -------
  Total Precipitation ......         2.125        64.074
  Evaporation Loss .........         0.000         0.000
  Infiltration Loss ........         0.100         3.002
  Surface Runoff ...........         1.993        60.093
  Final Storage ............         0.033         0.995
  Continuity Error (%) .....        -0.024
  
  
  **************************        Volume        Volume
  Flow Routing Continuity        hectare-m      10^6 ltr
  **************************     ---------     ---------
  Dry Weather Inflow .......         0.025         0.251
  Wet Weather Inflow .......         1.994        19.941
  Groundwater Inflow .......         0.000         0.000
  RDII Inflow ..............         0.000         0.000
  External Inflow ..........         0.083         0.834
  External Outflow .........         1.560        15.595
  Flooding Loss ............         0.615         6.145
  Evaporation Loss .........         0.000         0.000
  Exfiltration Loss ........         0.000         0.000
  Initial Stored Volume ....         0.243         2.431
  Final Stored Volume ......         0.181         1.811
  Continuity Error (%) .....        -0.409
  
  
  *************************
  Highest Continuity Errors
  *************************
  Node YS02001884 (5.01%)
  Node YS02001583 (-4.26%)
  Node WS02006256 (-3.02%)
  
  
  ***************************
  Time-Step Critical Elements
  ***************************
  Link WS02006238WS02006235 (28.95%)
  Link WS02006252WS02006251 (22.45%)
  Link WS02004404WS02004405 (20.63%)
  Link YS02001791YS02001793 (6.99%)
  Link WS02006235WS02006234 (4.67%)
  
  
  ********************************
  Highest Flow Instability Indexes
  ********************************
  Link WS02006113WS02006111 (35)
  Link WS02006256WS02006235 (22)
  Link WS02006111WS02006112 (20)
  Link WS02004404WS02004405 (19)
  Link WS02006238WS02006235 (19)
  
  
  *********************************
  Most Frequent Nonconverging Nodes
  *********************************
  Node CC-1 (16.18%)
  Node CC-2 (16.18%)
  Node JK-1 (16.18%)
  Node JK-2 (16.18%)
  Node WSC (16.18%)
  
  
  *************************
  Routing Time Step Summary
  *************************
  Minimum Time Step           :     0.01 sec
  Average Time Step           :     2.70 sec
  Maximum Time Step           :     6.49 sec
  % of Time in Steady State   :     0.00
  Average Iterations per Step :     3.55
  % of Steps Not Converging   :    16.18
  Time Step Frequencies       :
     30.000 - 13.228 sec      :     0.00 %
     13.228 -  5.833 sec      :    15.34 %
      5.833 -  2.572 sec      :    26.60 %
      2.572 -  1.134 sec      :    27.76 %
      1.134 -  0.500 sec      :    30.30 %
  
  
  ***************************
  Subcatchment Runoff Summary
  ***************************
  
  ------------------------------------------------------------------------------------------------------------------------------
                            Total      Total      Total      Total     Imperv       Perv      Total       Total     Peak  Runoff
                           Precip      Runon       Evap      Infil     Runoff     Runoff     Runoff      Runoff   Runoff   Coeff
  Subcatchment                 mm         mm         mm         mm         mm         mm         mm    10^6 ltr      LPS
  ------------------------------------------------------------------------------------------------------------------------------
  sub60                     64.07       0.00       0.00       1.79      55.18       5.90      61.09        0.80   600.83   0.953
  sub61                     64.07       0.00       0.00       2.60      52.05       8.30      60.35        1.11   835.23   0.942
  sub62                     64.07       0.00       0.00       1.19      57.66       3.94      61.60        1.69  1164.74   0.961
  sub63                     64.07       0.00       0.00       4.82      44.52      13.77      58.29        1.32   938.51   0.910
  sub64                     64.07       0.00       0.00       2.43      53.26       7.18      60.44        1.45   956.86   0.943
  sub65                     64.07       0.00       0.00       2.10      54.49       6.23      60.72        1.67  1069.55   0.948
  sub66                     64.07       0.00       0.00       6.00      44.42      12.58      57.00        2.66  1402.42   0.890
  sub67                     64.07       0.00       0.00       1.15      57.71       3.98      61.69        1.15   905.45   0.963
  sub68                     64.07       0.00       0.00       2.15      53.92       6.82      60.74        1.67  1197.71   0.948
  sub69                     64.07       0.00       0.00       1.92      54.35       7.69      62.04        2.30  1421.33   0.968
  sub70                     64.07       0.00       0.00       6.49      42.12      15.30      57.43        1.66   786.42   0.896
  sub71                     64.07       0.00       0.00       1.23      57.62       3.90      61.52        1.61  1033.62   0.960
  sub72                     64.07       0.00       0.00       1.09      58.19       3.40      61.58        0.85   499.51   0.961
  
  
  ******************
  Node Depth Summary
  ******************
  
  ---------------------------------------------------------------------------------
                                 Average  Maximum  Maximum  Time of Max    Reported
                                   Depth    Depth      HGL   Occurrence   Max Depth
  Node                 Type       Meters   Meters   Meters  days hr:min      Meters
  ---------------------------------------------------------------------------------
  WS02003060           JUNCTION     0.22     0.38     5.32     0  02:42        0.38
  WS02003066           JUNCTION     0.18     0.30     5.85     0  02:41        0.30
  WS02003067           JUNCTION     0.47     0.70     6.02     0  02:41        0.70
  WS02003069           JUNCTION     0.24     0.43     5.02     0  02:43        0.43
  WS02003072           JUNCTION     0.30     0.50     4.87     0  02:43        0.50
  WS02003073           JUNCTION     0.17     0.30     4.36     0  02:44        0.30
  WS02004401           JUNCTION     0.57     0.88     6.88     0  02:35        0.88
  WS02004402           JUNCTION     0.60     0.91     6.87     0  02:35        0.90
  WS02004403           JUNCTION     0.62     0.92     6.85     0  02:29        0.92
  WS02004404           JUNCTION     0.70     1.05     6.90     0  02:31        1.04
  WS02004405           JUNCTION     0.69     0.97     6.82     0  02:40        0.96
  WS02004406           JUNCTION     0.70     0.96     6.79     0  02:40        0.96
  WS02004407           JUNCTION     0.16     0.30     6.61     0  02:40        0.30
  WS02004409           JUNCTION     0.36     0.67     6.44     0  02:40        0.67
  WS02004410           JUNCTION     0.39     0.68     6.40     0  02:40        0.68
  WS02004411           JUNCTION     0.41     0.69     6.37     0  02:36        0.69
  WS02004412           JUNCTION     0.43     0.70     6.34     0  02:36        0.70
  WS02004413           JUNCTION     0.59     0.86     6.33     0  02:41        0.86
  WS02006109           JUNCTION     0.62     1.42     8.04     0  02:05        1.24
  WS02006110           JUNCTION     0.62     1.54     8.13     0  02:05        0.92
  WS02006111           JUNCTION     0.16     0.29     7.00     0  03:06        0.29
  WS02006112           JUNCTION     0.72     1.10     6.98     0  03:06        1.08
  WS02006113           JUNCTION     0.25     0.46     7.35     0  03:06        0.46
  WS02006115           JUNCTION     0.45     0.78     6.92     0  02:35        0.78
  WS02006116           JUNCTION     0.54     0.86     6.90     0  02:35        0.86
  WS02006228           JUNCTION     0.61     1.31     7.96     0  02:05        1.11
  WS02006229           JUNCTION     0.58     1.20     7.90     0  02:05        1.14
  WS02006230           JUNCTION     0.58     1.35     8.09     0  02:04        1.29
  WS02006231           JUNCTION     0.38     1.38     8.50     0  02:17        1.04
  WS02006232           JUNCTION     0.51     1.62     8.66     0  03:40        1.24
  WS02006234           JUNCTION     0.44     1.68     8.83     0  03:40        1.41
  WS02006235           JUNCTION     0.48     1.73     8.89     0  03:06        1.73
  WS02006238           JUNCTION     0.50     1.83     8.97     0  03:06        1.83
  WS02006239           JUNCTION     0.47     1.93     9.14     0  03:06        1.93
  WS02006240           JUNCTION     0.44     2.10     9.39     0  03:40        1.86
  WS02006242           JUNCTION     0.51     1.55     8.82     0  02:14        1.55
  WS02006243           JUNCTION     0.42     1.48     8.90     0  03:06        1.48
  WS02006245           JUNCTION     0.42     1.49     8.98     0  03:06        1.49
  WS02006247           JUNCTION     0.44     1.40     8.90     0  03:06        1.40
  WS02006248           JUNCTION     0.41     1.10     8.69     0  01:59        1.10
  WS02006249           JUNCTION     0.43     1.09     8.69     0  01:59        1.09
  WS02006251           JUNCTION     0.43     1.73     9.40     0  02:15        1.14
  WS02006252           JUNCTION     0.30     1.50     9.74     0  00:00        0.73
  WS02006256           JUNCTION     0.94     2.35     9.28     0  00:00        2.35
  WSF200               JUNCTION     0.15     0.29     5.52     0  02:41        0.29
  YS02001580           JUNCTION     0.13     1.05     9.59     0  02:03        0.77
  YS02001583           JUNCTION     0.16     1.14     9.64     0  02:03        0.82
  YS02001586           JUNCTION     0.26     1.13     9.30     0  02:03        1.13
  YS02001590           JUNCTION     0.37     1.39     9.25     0  02:03        1.37
  YS02001593           JUNCTION     0.30     1.33     9.20     0  02:03        1.29
  YS02001596           JUNCTION     0.40     1.69     9.11     0  02:03        1.66
  YS02001600           JUNCTION     0.48     1.87     9.00     0  02:03        1.87
  YS02001601           JUNCTION     0.68     2.06     8.90     0  02:02        2.06
  YS02001602           JUNCTION     0.59     1.87     8.77     0  02:03        1.87
  YS02001605           JUNCTION     0.55     1.77     8.68     0  02:08        1.77
  YS02001607           JUNCTION     0.52     1.65     8.49     0  02:14        1.65
  YS02001610           JUNCTION     0.57     1.68     8.48     0  02:06        1.68
  YS02001613           JUNCTION     0.53     1.66     8.50     0  02:14        1.66
  YS02001616           JUNCTION     0.46     1.61     8.52     0  02:12        1.61
  YS02001619           JUNCTION     0.43     1.61     8.54     0  02:14        1.61
  YS02001622           JUNCTION     0.42     1.57     8.48     0  02:12        1.57
  YS02001625           JUNCTION     0.68     1.78     8.38     0  02:06        1.78
  YS02001629           JUNCTION     0.56     1.85     8.40     0  02:08        1.85
  YS02001633           JUNCTION     0.63     2.04     8.50     0  02:08        2.01
  YS02001641           JUNCTION     0.60     1.97     8.41     0  02:08        1.94
  YS02001644           JUNCTION     0.59     1.92     8.35     0  02:08        1.92
  YS02001647           JUNCTION     0.37     1.82     8.43     0  02:09        1.73
  YS02001649           JUNCTION     0.42     2.05     8.44     0  02:10        1.94
  YS02001652           JUNCTION     0.30     2.16     8.76     0  02:09        1.77
  YS02001655           JUNCTION     0.23     2.20     9.05     0  02:09        1.58
  YS02001658           JUNCTION     0.17     2.30     9.44     0  02:09        1.33
  YS02001661           JUNCTION     0.18     1.86     9.27     0  02:10        1.12
  YS02001664           JUNCTION     0.08     0.57     8.50     0  02:13        0.57
  YS02001745           JUNCTION     0.09     0.78     8.30     0  02:12        0.77
  YS02001748           JUNCTION     0.15     2.27     9.35     0  02:09        1.21
  YS02001751           JUNCTION     0.19     2.20     9.08     0  02:09        1.39
  YS02001754           JUNCTION     0.26     2.11     8.72     0  02:09        1.63
  YS02001757           JUNCTION     0.43     2.08     8.34     0  02:09        1.96
  YS02001759           JUNCTION     0.37     2.10     8.47     0  02:09        1.97
  YS02001762           JUNCTION     0.36     2.07     8.47     0  02:09        1.95
  YS02001765           JUNCTION     0.34     2.04     8.49     0  02:09        1.92
  YS02001767           JUNCTION     0.34     2.03     8.52     0  02:07        1.90
  YS02001770           JUNCTION     0.36     1.95     8.44     0  02:08        1.93
  YS02001774           JUNCTION     0.42     2.05     8.47     0  02:08        1.98
  YS02001779           JUNCTION     0.25     1.68     8.37     0  02:08        1.68
  YS02001783           JUNCTION     0.30     1.31     7.45     0  02:07        1.23
  YS02001784           JUNCTION     0.31     1.16     7.23     0  02:07        1.12
  YS02001786           JUNCTION     0.26     0.93     6.96     0  02:07        0.88
  YS02001788           JUNCTION     0.19     0.62     6.60     0  02:11        0.62
  YS02001790           JUNCTION     0.22     0.72     6.37     0  02:15        0.72
  YS02001791           JUNCTION     0.14     0.44     5.91     0  02:11        0.42
  YS02001793           JUNCTION     0.07     0.31     5.14     0  02:20        0.30
  YS02001882           JUNCTION     0.39     1.83     8.55     0  02:05        1.65
  YS02001884           JUNCTION     0.48     1.89     8.50     0  02:05        1.76
  YS02001887           JUNCTION     0.55     1.90     8.44     0  02:05        1.83
  YS02001890           JUNCTION     0.58     1.81     8.32     0  02:05        1.81
  YS02001895           JUNCTION     0.35     1.62     8.37     0  02:05        1.57
  YS02001898           JUNCTION     0.36     1.57     8.30     0  02:07        1.56
  YS02001901           JUNCTION     0.47     1.68     8.29     0  02:09        1.68
  YS02001904           JUNCTION     0.45     1.64     8.27     0  02:07        1.64
  YS02001907           JUNCTION     0.77     1.96     8.25     0  02:07        1.96
  YS02001910           JUNCTION     0.57     2.00     8.51     0  02:07        1.94
  YS02001915           JUNCTION     0.39     2.00     8.72     0  02:05        1.89
  YS02001918           JUNCTION     0.23     1.81     8.88     0  02:07        1.81
  YS02001920           JUNCTION     0.31     2.14     9.14     0  02:07        2.01
  YS02001923           JUNCTION     0.18     2.03     9.29     0  02:07        1.90
  YS02001926           JUNCTION     0.21     1.90     9.35     0  02:07        1.86
  YS02001929           JUNCTION     0.13     1.78     9.47     0  02:07        1.78
  YS02006553           JUNCTION     0.77     1.98     8.27     0  02:11        1.98
  YS02006556           JUNCTION     0.74     1.96     8.28     0  02:12        1.96
  YS02006558           JUNCTION     0.79     2.02     8.28     0  02:12        2.02
  YS02006561           JUNCTION     0.19     1.08     7.74     0  02:07        0.90
  YS02163301           JUNCTION     0.58     1.93     8.45     0  02:08        1.92
  YS02163601           JUNCTION     0.66     2.07     8.47     0  02:08        2.02
  YS02164001           JUNCTION     0.59     1.98     8.44     0  02:08        1.94
  CC-1                 OUTFALL      0.00     0.00     0.00     0  00:00        0.00
  CC-2                 OUTFALL      0.00     0.00     0.00     0  00:00        0.00
  JK-1                 OUTFALL      0.00     0.00     0.00     0  00:00        0.00
  JK-2                 OUTFALL      0.00     0.00     0.00     0  00:00        0.00
  WSC                  OUTFALL      0.17     0.30     0.97     0  02:44        0.30
  CC-storage           STORAGE      0.76     1.54     7.04     0  02:38        1.54
  JK-storage           STORAGE      1.65     4.23     5.03     0  02:20        4.20
  
  
  *******************
  Node Inflow Summary
  *******************
  
  -------------------------------------------------------------------------------------------------
                                  Maximum  Maximum                  Lateral       Total        Flow
                                  Lateral    Total  Time of Max      Inflow      Inflow     Balance
                                   Inflow   Inflow   Occurrence      Volume      Volume       Error
  Node                 Type           LPS      LPS  days hr:min    10^6 ltr    10^6 ltr     Percent
  -------------------------------------------------------------------------------------------------
  WS02003060           JUNCTION     16.53   556.64     0  02:41       0.476        4.31       0.054
  WS02003066           JUNCTION      0.00   539.90     0  02:41           0        3.84       0.034
  WS02003067           JUNCTION      0.00   539.78     0  02:41           0        3.84       0.109
  WS02003069           JUNCTION      0.32   557.02     0  02:42     0.00922        4.32       0.091
  WS02003072           JUNCTION      0.00   556.73     0  02:43           0        4.31       0.160
  WS02003073           JUNCTION      1.82   558.34     0  02:44      0.0524        4.36       0.132
  WS02004401           JUNCTION      0.00   541.01     0  02:31           0        3.94       0.257
  WS02004402           JUNCTION      0.00   542.42     0  02:30           0        3.93       0.262
  WS02004403           JUNCTION      0.00   541.55     0  02:39           0        3.92       0.254
  WS02004404           JUNCTION      0.16   562.25     0  02:39     0.00467        3.91       0.147
  WS02004405           JUNCTION      0.04   612.96     0  02:40      0.0011        3.91       0.286
  WS02004406           JUNCTION      0.00   546.84     0  02:40           0        3.89       0.529
  WS02004407           JUNCTION      0.00   541.25     0  02:40           0        3.87       0.029
  WS02004409           JUNCTION      0.00   540.87     0  02:40           0        3.87       0.068
  WS02004410           JUNCTION      0.00   540.49     0  02:40           0        3.87       0.110
  WS02004411           JUNCTION      0.00   540.24     0  02:40           0        3.87       0.142
  WS02004412           JUNCTION      0.00   540.26     0  02:40           0        3.86       0.191
  WS02004413           JUNCTION      0.00   539.96     0  02:36           0        3.85       0.340
  WS02006109           JUNCTION      1.23   574.49     0  03:06      0.0354        3.98       0.227
  WS02006110           JUNCTION      0.00   578.16     0  03:06           0        3.97       0.160
  WS02006111           JUNCTION      0.00   566.63     0  03:08           0        3.97       0.019
  WS02006112           JUNCTION      0.00   546.17     0  03:06           0        3.97       0.441
  WS02006113           JUNCTION      0.00   589.57     0  03:06           0        3.97       0.041
  WS02006115           JUNCTION      0.00   561.37     0  03:06           0        3.95       0.164
  WS02006116           JUNCTION      0.00   542.10     0  02:36           0        3.94       0.145
  WS02006228           JUNCTION      0.00   567.14     0  03:06           0        3.95       0.117
  WS02006229           JUNCTION      0.00   562.81     0  03:06           0        3.96       0.138
  WS02006230           JUNCTION     10.28   586.94     0  02:55       0.296        3.96       0.116
  WS02006231           JUNCTION      0.00   579.60     0  02:04           0        3.67       0.022
  WS02006232           JUNCTION      0.00   578.71     0  02:04           0        3.67       0.172
  WS02006234           JUNCTION      0.00   573.01     0  02:04           0        3.66      -0.396
  WS02006235           JUNCTION      0.00   564.01     0  02:04           0        3.77       0.372
  WS02006238           JUNCTION      0.00   438.32     0  02:00           0        3.05      -0.248
  WS02006239           JUNCTION      0.00   436.49     0  02:00           0        2.98      -0.137
  WS02006240           JUNCTION      0.00   430.84     0  02:00           0        2.94      -0.061
  WS02006242           JUNCTION      0.00   430.90     0  02:00           0        2.93      -0.049
  WS02006243           JUNCTION      0.00   430.84     0  02:00           0        2.91      -0.419
  WS02006245           JUNCTION      0.00   431.04     0  02:00           0        2.93       0.595
  WS02006247           JUNCTION      0.00   430.51     0  02:01           0        2.93       0.001
  WS02006248           JUNCTION      0.00   430.16     0  02:01           0        2.93      -0.114
  WS02006249           JUNCTION      0.00   475.07     0  01:55           0        3.09       0.826
  WS02006251           JUNCTION      0.08   411.17     0  02:15     0.00222        3.09       0.058
  WS02006252           JUNCTION      0.00   400.00     0  00:00           0        3.07      -0.565
  WS02006256           JUNCTION      0.00   300.00     0  00:00           0        1.03      -2.930
  WSF200               JUNCTION      0.00   539.94     0  02:41           0        3.83       0.012
  YS02001580           JUNCTION      0.00    81.09     0  02:03           0     0.00387      -3.718
  YS02001583           JUNCTION      0.00   148.46     0  02:03           0      0.0151      -4.086
  YS02001586           JUNCTION    786.42   786.53     0  02:15        1.66        1.67       0.049
  YS02001590           JUNCTION      0.00   318.02     0  02:17           0        1.28      -0.036
  YS02001593           JUNCTION      0.00   318.02     0  02:18           0        1.28       0.007
  YS02001596           JUNCTION      0.00   318.03     0  02:30           0        1.28      -0.013
  YS02001600           JUNCTION      0.00   318.02     0  02:28           0        1.28       0.017
  YS02001601           JUNCTION   1421.33  1738.98     0  02:14         2.3        3.58       0.010
  YS02001602           JUNCTION      0.00   508.46     0  02:02           0         2.2       0.018
  YS02001605           JUNCTION      0.00   508.97     0  02:02           0        2.09       0.028
  YS02001607           JUNCTION      0.00   508.89     0  02:02           0        2.09       0.090
  YS02001610           JUNCTION      0.00   779.63     0  02:15           0        2.34       0.078
  YS02001613           JUNCTION      0.00   508.12     0  02:03           0         1.9       0.086
  YS02001616           JUNCTION      0.00   507.67     0  02:02           0         1.9       0.019
  YS02001619           JUNCTION   1402.42  1402.42     0  02:15        2.66        4.31      -0.001
  YS02001622           JUNCTION      0.00   973.94     0  02:13           0        4.06      -0.004
  YS02001625           JUNCTION      0.00  1365.57     0  02:16           0        4.26       0.187
  YS02001629           JUNCTION      0.00   932.38     0  02:06           0        3.41       0.015
  YS02001633           JUNCTION   1069.75  1392.22     0  02:06        1.68        4.84       0.067
  YS02001641           JUNCTION      0.00  1392.07     0  02:06           0        4.61       0.057
  YS02001644           JUNCTION    956.90  1809.65     0  02:06        1.45        6.05       0.043
  YS02001647           JUNCTION      0.00  1810.01     0  02:06           0        5.66       0.004
  YS02001649           JUNCTION      0.00  2068.81     0  02:07           0        6.99       0.000
  YS02001652           JUNCTION      0.00   960.31     0  02:13           0        1.33      -0.092
  YS02001655           JUNCTION      0.15   960.37     0  02:13     0.00443        1.33      -0.012
  YS02001658           JUNCTION      0.00   960.05     0  02:13           0        1.32      -0.038
  YS02001661           JUNCTION      0.00   959.05     0  02:13           0        1.32       0.016
  YS02001664           JUNCTION    938.51   938.51     0  02:13        1.32        1.32      -0.007
  YS02001745           JUNCTION    600.83   600.83     0  02:13       0.803       0.803       0.184
  YS02001748           JUNCTION      0.04   601.50     0  02:13      0.0013       0.803      -0.256
  YS02001751           JUNCTION      0.01   601.90     0  02:13    0.000317       0.808       0.103
  YS02001754           JUNCTION      0.26   602.93     0  02:14     0.00749       0.818      -0.165
  YS02001757           JUNCTION      0.00  3556.46     0  02:12           0        10.4       0.052
  YS02001759           JUNCTION    835.27  1459.64     0  02:13        1.11        2.63      -0.010
  YS02001762           JUNCTION      0.00   779.70     0  02:10           0        1.52      -0.004
  YS02001765           JUNCTION      0.00   779.80     0  02:10           0        1.52       0.002
  YS02001767           JUNCTION      0.54   779.67     0  02:10      0.0154        1.52      -0.007
  YS02001770           JUNCTION   1164.90  1164.90     0  02:14        1.69        1.73      -0.012
  YS02001774           JUNCTION      0.00   582.90     0  02:14           0       0.246       0.423
  YS02001779           JUNCTION      0.01   583.47     0  02:14    0.000144       0.204      -0.311
  YS02001783           JUNCTION      0.00  1167.07     0  02:11           0        3.89       0.005
  YS02001784           JUNCTION      1.06  1168.12     0  02:11      0.0305        3.92       0.012
  YS02001786           JUNCTION      0.06  1168.16     0  02:11     0.00162        3.92       0.016
  YS02001788           JUNCTION      0.07  1168.06     0  02:11     0.00204        3.92       0.008
  YS02001790           JUNCTION      0.15  1180.33     0  02:12     0.00446        3.92       0.026
  YS02001791           JUNCTION      0.00  1287.36     0  02:15           0        3.92      -0.027
  YS02001793           JUNCTION      0.00  1244.11     0  02:16           0        3.92       0.005
  YS02001882           JUNCTION      0.00    43.13     0  02:05           0      0.0124       4.645
  YS02001884           JUNCTION      0.00    71.19     0  02:04           0      0.0479       5.275
  YS02001887           JUNCTION    905.90   905.90     0  02:13        1.16        1.19       0.361
  YS02001890           JUNCTION      0.00   905.88     0  02:13           0        1.15       0.421
  YS02001895           JUNCTION      0.00   517.26     0  02:17           0        1.03       0.150
  YS02001898           JUNCTION      0.00   518.28     0  02:17           0        1.03       0.017
  YS02001901           JUNCTION      0.00   517.48     0  02:17           0        1.03       0.304
  YS02001904           JUNCTION      0.00   517.64     0  02:17           0        1.04       0.254
  YS02001907           JUNCTION      0.00  2097.63     0  02:13           0        3.57       0.469
  YS02001910           JUNCTION      0.00  1546.29     0  02:13           0        2.54       0.278
  YS02001915           JUNCTION   1033.64  1546.29     0  02:13        1.61        2.58       0.058
  YS02001918           JUNCTION      0.00   517.37     0  02:13           0       0.991       0.006
  YS02001920           JUNCTION      2.87   516.60     0  02:13      0.0827       0.976       0.094
  YS02001923           JUNCTION      0.04   514.46     0  02:13     0.00109       0.877      -0.043
  YS02001926           JUNCTION      0.05   514.21     0  02:13      0.0015       0.857       0.020
  YS02001929           JUNCTION    499.51   499.51     0  02:14       0.847       0.848      -0.032
  YS02006553           JUNCTION      0.00   804.87     0  02:29           0        2.24       0.522
  YS02006556           JUNCTION      0.00   805.51     0  02:29           0        2.25       0.347
  YS02006558           JUNCTION   1198.59  1198.59     0  02:13         1.7        3.92       0.090
  YS02006561           JUNCTION      0.00  1167.23     0  02:11           0        3.89      -0.000
  YS02163301           JUNCTION      0.00   932.14     0  02:06           0         3.4       0.040
  YS02163601           JUNCTION      0.11  1392.45     0  02:06     0.00317         4.6       0.102
  YS02164001           JUNCTION      0.00  1392.25     0  02:06           0         4.6       0.044
  CC-1                 OUTFALL       0.00   683.00     0  00:00           0        4.36       0.000
  CC-2                 OUTFALL       0.00   683.00     0  00:00           0        3.86       0.000
  JK-1                 OUTFALL       0.00  1000.00     0  00:00           0        2.23       0.000
  JK-2                 OUTFALL       0.00  1000.00     0  00:00           0       0.792       0.000
  WSC                  OUTFALL       0.00   558.06     0  02:44           0        4.35       0.000
  CC-storage           STORAGE       0.00  3556.32     0  02:12           0        12.7      -0.253
  JK-storage           STORAGE       0.00  1224.46     0  02:11           0        4.07      -0.395
  
  
  **********************
  Node Surcharge Summary
  **********************
  
  Surcharging occurs when water rises above the top of the highest conduit.
  ---------------------------------------------------------------------
                                               Max. Height   Min. Depth
                                   Hours       Above Crown    Below Rim
  Node                 Type      Surcharged         Meters       Meters
  ---------------------------------------------------------------------
  WS02004404           JUNCTION        0.04          0.052        2.728
  WS02006109           JUNCTION        1.46          0.598        1.222
  WS02006110           JUNCTION        0.49          0.632        1.218
  WS02006112           JUNCTION        0.56          0.101        1.579
  WS02006228           JUNCTION        1.45          0.475        1.725
  WS02006229           JUNCTION        1.49          0.404        2.046
  WS02006230           JUNCTION        0.49          0.269        1.301
  WS02006231           JUNCTION        0.54          0.668        0.862
  WS02006232           JUNCTION        1.62          0.922        0.558
  WS02006234           JUNCTION        0.78          0.957        0.283
  WS02006235           JUNCTION        1.47          1.019        0.271
  WS02006238           JUNCTION        1.54          1.109        0.321
  WS02006239           JUNCTION        1.40          1.189        0.101
  WS02006240           JUNCTION        1.41          1.390        0.000
  WS02006242           JUNCTION        1.55          0.820        0.000
  WS02006243           JUNCTION        1.42          0.770        0.000
  WS02006245           JUNCTION        1.41          0.783        0.067
  WS02006247           JUNCTION        1.43          0.693        0.067
  WS02006248           JUNCTION        1.39          0.380        0.000
  WS02006249           JUNCTION        1.41          0.390        0.000
  WS02006251           JUNCTION        0.58          0.704        0.476
  WS02006252           JUNCTION        1.94          1.100        0.000
  WS02006256           JUNCTION        6.30          2.050        0.000
  YS02001580           JUNCTION        0.60          0.450        0.000
  YS02001583           JUNCTION        0.61          0.500        0.000
  YS02001586           JUNCTION        0.71          0.510        0.000
  YS02001590           JUNCTION        0.78          0.737        0.013
  YS02001593           JUNCTION        0.78          0.714        0.126
  YS02001596           JUNCTION        0.89          0.957        0.113
  YS02001600           JUNCTION        1.04          1.190        0.000
  YS02001601           JUNCTION        1.37          1.440        0.000
  YS02001602           JUNCTION        1.26          1.270        0.000
  YS02001605           JUNCTION        1.22          1.175        0.005
  YS02001607           JUNCTION        0.75          0.647        0.033
  YS02001610           JUNCTION        0.77          0.680        0.000
  YS02001613           JUNCTION        0.74          0.662        0.038
  YS02001616           JUNCTION        0.70          0.607        0.003
  YS02001619           JUNCTION        0.69          0.610        0.000
  YS02001622           JUNCTION        0.68          0.574        0.046
  YS02001625           JUNCTION        0.86          0.780        0.000
  YS02001629           JUNCTION        0.63          0.470        0.000
  YS02001633           JUNCTION        0.87          1.024        0.036
  YS02001641           JUNCTION        0.80          0.972        0.128
  YS02001644           JUNCTION        0.77          0.920        0.000
  YS02001647           JUNCTION        0.55          0.819        0.081
  YS02001649           JUNCTION        0.65          1.050        0.000
  YS02001652           JUNCTION        0.47          1.130        0.000
  YS02001655           JUNCTION        0.34          1.200        0.000
  YS02001658           JUNCTION        0.20          1.300        0.000
  YS02001661           JUNCTION        0.04          0.793        0.597
  YS02001748           JUNCTION        0.13          1.190        0.000
  YS02001751           JUNCTION        0.25          1.200        0.000
  YS02001754           JUNCTION        0.37          1.060        0.090
  YS02001757           JUNCTION        0.71          1.075        0.135
  YS02001759           JUNCTION        0.61          1.105        0.105
  YS02001762           JUNCTION        0.57          1.067        0.083
  YS02001765           JUNCTION        0.53          1.043        0.057
  YS02001767           JUNCTION        0.51          1.030        0.000
  YS02001770           JUNCTION        0.48          0.920        0.000
  YS02001774           JUNCTION        0.56          1.050        0.000
  YS02001779           JUNCTION        0.38          0.680        0.000
  YS02001783           JUNCTION        0.53          0.505        1.095
  YS02001784           JUNCTION        0.50          0.358        1.132
  YS02001786           JUNCTION        0.40          0.129        1.301
  YS02001882           JUNCTION        0.48          0.830        0.000
  YS02001884           JUNCTION        0.48          0.826        0.044
  YS02001887           JUNCTION        0.52          0.853        0.097
  YS02001890           JUNCTION        0.53          0.760        0.000
  YS02001895           JUNCTION        0.46          0.620        0.130
  YS02001898           JUNCTION        0.46          0.538        0.202
  YS02001901           JUNCTION        0.50          0.677        0.193
  YS02001904           JUNCTION        0.50          0.643        0.207
  YS02001907           JUNCTION        0.75          0.950        0.000
  YS02001910           JUNCTION        0.56          1.001        0.099
  YS02001915           JUNCTION        0.47          1.000        0.000
  YS02001918           JUNCTION        0.39          0.810        0.000
  YS02001920           JUNCTION        0.40          1.136        0.004
  YS02001923           JUNCTION        0.12          0.820        0.000
  YS02001926           JUNCTION        0.15          0.900        0.000
  YS02001929           JUNCTION        0.01          0.780        0.000
  YS02006553           JUNCTION        0.76          0.982        0.208
  YS02006556           JUNCTION        0.65          0.924        0.426
  YS02006558           JUNCTION        0.64          0.915        0.485
  YS02006561           JUNCTION        0.36          0.278        0.872
  YS02163301           JUNCTION        0.85          0.934        0.096
  YS02163601           JUNCTION        0.90          1.069        0.011
  YS02164001           JUNCTION        0.81          0.985        0.115
  
  
  *********************
  Node Flooding Summary
  *********************
  
  Flooding refers to all water that overflows a node, whether it ponds or not.
  --------------------------------------------------------------------------
                                                             Total   Maximum
                                 Maximum   Time of Max       Flood    Ponded
                        Hours       Rate    Occurrence      Volume     Depth
  Node                 Flooded       LPS   days hr:min    10^6 ltr    Meters
  --------------------------------------------------------------------------
  WS02006240              0.01     43.57      0  03:40       0.000     0.000
  WS02006242              0.01     37.20      0  03:40       0.000     0.000
  WS02006243              0.01     46.58      0  03:40       0.000     0.000
  WS02006248              0.01     19.72      0  03:06       0.000     0.000
  WS02006249              0.56    105.27      0  03:06       0.137     0.000
  WS02006252              0.01    245.63      0  00:00       0.000     0.000
  WS02006256              0.95    293.19      0  00:00       0.318     0.000
  YS02001580              0.01     42.71      0  02:03       0.000     0.000
  YS02001583              0.01     79.17      0  02:03       0.000     0.000
  YS02001586              0.48    469.04      0  02:15       0.375     0.000
  YS02001600              0.01      1.09      0  02:03       0.000     0.000
  YS02001601              0.64   1341.09      0  02:14       1.381     0.000
  YS02001602              0.52     61.99      0  02:17       0.105     0.000
  YS02001610              0.45    779.48      0  02:15       0.683     0.000
  YS02001619              0.01      1.85      0  02:14       0.000     0.000
  YS02001625              0.41   1365.43      0  02:16       1.075     0.000
  YS02001629              0.13    199.73      0  02:12       0.053     0.000
  YS02001644              0.18   1045.93      0  02:14       0.385     0.000
  YS02001649              0.01      8.48      0  02:10       0.000     0.000
  YS02001652              0.01     19.98      0  02:09       0.000     0.000
  YS02001655              0.01     89.94      0  02:09       0.000     0.000
  YS02001658              0.01    349.70      0  02:09       0.000     0.000
  YS02001748              0.01    155.75      0  02:09       0.000     0.000
  YS02001751              0.01     17.94      0  02:09       0.000     0.000
  YS02001767              0.01    136.76      0  02:07       0.000     0.000
  YS02001770              0.01     27.95      0  02:08       0.000     0.000
  YS02001774              0.01     24.11      0  02:08       0.000     0.000
  YS02001779              0.16    583.28      0  02:14       0.186     0.000
  YS02001882              0.01      3.90      0  02:05       0.000     0.000
  YS02001890              0.18    390.49      0  02:13       0.118     0.000
  YS02001907              0.34   2097.18      0  02:13       1.323     0.000
  YS02001915              0.01     98.30      0  02:05       0.000     0.000
  YS02001918              0.01     87.61      0  02:07       0.001     0.000
  YS02001923              0.01    236.13      0  02:07       0.000     0.000
  YS02001926              0.01    263.15      0  02:07       0.000     0.000
  YS02001929              0.01    334.93      0  02:07       0.002     0.000
  
  
  **********************
  Storage Volume Summary
  **********************
  
  ------------------------------------------------------------------------------------------------
                         Average    Avg   Evap  Exfil     Maximum    Max    Time of Max    Maximum
                          Volume   Pcnt   Pcnt   Pcnt      Volume   Pcnt     Occurrence    Outflow
  Storage Unit           1000 m³   Full   Loss   Loss     1000 m³   Full    days hr:min        LPS
  ------------------------------------------------------------------------------------------------
  CC-storage               2.127   33.2    0.0    0.0       4.304   67.1       0  02:38    1783.53
  JK-storage               0.083   28.4    0.0    0.0       0.213   73.0       0  02:20    2300.00
  
  
  ***********************
  Outfall Loading Summary
  ***********************
  
  -----------------------------------------------------------
                         Flow       Avg       Max       Total
                         Freq      Flow      Flow      Volume
  Outfall Node           Pcnt       LPS       LPS    10^6 ltr
  -----------------------------------------------------------
  CC-1                  37.68    683.00    683.00       4.363
  CC-2                  31.06    683.00    683.00       3.861
  JK-1                  15.32   1000.00   1000.00       2.226
  JK-2                   5.22   1000.00   1000.00       0.792
  WSC                   99.94    229.08    558.06       4.353
  -----------------------------------------------------------
  System                37.84   3595.08   3398.59      15.595
  
  
  ********************
  Link Flow Summary
  ********************
  
  -----------------------------------------------------------------------------
                                 Maximum  Time of Max   Maximum    Max/    Max/
                                  |Flow|   Occurrence   |Veloc|    Full    Full
  Link                 Type          LPS  days hr:min     m/sec    Flow   Depth
  -----------------------------------------------------------------------------
  1                    CONDUIT    558.06     0  02:44      2.83    0.19    0.30
  WS02003060WS02003069 CONDUIT    556.70     0  02:42      1.64    0.22    0.34
  WS02003066WSF200     CONDUIT    539.94     0  02:41      2.86    0.09    0.22
  WS02003067WS02003066 CONDUIT    539.90     0  02:41      1.21    0.17    0.42
  WS02003069WS02003072 CONDUIT    556.73     0  02:43      1.37    0.27    0.39
  WS02003072WS02003073 CONDUIT    556.52     0  02:44      1.44    1.20    0.37
  WS02004401WS02004402 CONDUIT    542.42     0  02:30      0.98    0.65    0.89
  WS02004402WS02004403 CONDUIT    541.55     0  02:39      0.97    0.78    0.91
  WS02004403WS02004404 CONDUIT    562.09     0  02:39      0.92    0.41    0.96
  WS02004404WS02004405 CONDUIT    612.92     0  02:40      1.08    6.00    0.98
  WS02004405WS02004406 CONDUIT    546.84     0  02:40      0.99    1.08    0.97
  WS02004406WS02004407 CONDUIT    541.25     0  02:40      1.04    0.24    0.63
  WS02004407WS02004409 CONDUIT    540.87     0  02:40      1.46    0.19    0.48
  WS02004409WS02004410 CONDUIT    540.49     0  02:40      0.96    0.70    0.68
  WS02004410WS02004411 CONDUIT    540.24     0  02:40      0.94    0.74    0.69
  WS02004411WS02004412 CONDUIT    540.26     0  02:40      0.93    0.77    0.70
  WS02004412WS02004413 CONDUIT    539.96     0  02:36      0.82    0.36    0.78
  WS02004413WS02003067 CONDUIT    539.78     0  02:41      1.11    0.23    0.59
  WS02006109WS02006110 CONDUIT    578.16     0  03:06      1.15    1.11    1.00
  WS02006110WS02006113 CONDUIT    589.57     0  03:06      1.41    0.54    0.79
  WS02006111WS02006112 CONDUIT    546.17     0  03:06      1.81    0.26    0.67
  WS02006112WS02006115 CONDUIT    561.37     0  03:06      0.79    0.33    0.88
  WS02006113WS02006111 CONDUIT    566.63     0  03:08      2.47    0.68    0.47
  WS02006115WS02006116 CONDUIT    542.10     0  02:36      0.97    0.70    0.79
  WS02006116WS02004401 CONDUIT    541.01     0  02:31      0.98    0.75    0.87
  WS02006228WS02006109 CONDUIT    573.26     0  03:06      1.14    2.50    1.00
  WS02006229WS02006228 CONDUIT    567.14     0  03:06      1.14    1.88    1.00
  WS02006230WS02006229 CONDUIT    562.81     0  03:06      1.46   12.52    1.00
  WS02006231WS02006230 CONDUIT    576.66     0  02:55      1.56    8.75    1.00
  WS02006232WS02006231 CONDUIT    579.60     0  02:04      1.51    1.21    1.00
  WS02006234WS02006232 CONDUIT    578.71     0  02:04      1.50    1.17    1.00
  WS02006235WS02006234 CONDUIT    573.01     0  02:04      1.49    6.05    1.00
  WS02006238WS02006235 CONDUIT    439.37     0  02:00      1.45    0.98    1.00
  WS02006239WS02006238 CONDUIT    438.32     0  02:00      1.14    1.40    1.00
  WS02006240WS02006239 CONDUIT    436.49     0  02:00      1.24    1.37    1.00
  WS02006242WS02006240 CONDUIT    430.84     0  02:00      1.13    1.71    1.00
  WS02006243WS02006242 CONDUIT    430.90     0  02:00      1.40    0.92    1.00
  WS02006245WS02006243 CONDUIT    430.84     0  02:00      1.45    1.27    1.00
  WS02006247WS02006245 CONDUIT    431.04     0  02:00      1.43    3.42    1.00
  WS02006248WS02006247 CONDUIT    430.51     0  02:01      1.45    0.94    1.00
  WS02006249WS02006248 CONDUIT    430.16     0  02:01      1.42    2.36    1.00
  WS02006251WS02006249 CONDUIT    475.07     0  01:55      2.02    1.37    1.00
  WS02006252WS02006251 CONDUIT    411.09     0  02:15     27.23    1.51    1.00
  WS02006256WS02006235 CONDUIT    288.91     0  00:00      4.23    3.06    1.00
  WSF200WS02003060     CONDUIT    540.12     0  02:41      2.06    0.12    0.28
  YS02001580YS02001583 CONDUIT     81.09     0  02:03      0.59    0.31    1.00
  YS02001583YS02001586 CONDUIT    148.46     0  02:03      0.62    0.22    1.00
  YS02001586YS02001590 CONDUIT    318.02     0  02:17      1.25    0.56    1.00
  YS02001590YS02001593 CONDUIT    318.02     0  02:18      1.12    2.00    1.00
  YS02001593YS02001596 CONDUIT    318.03     0  02:30      1.76    0.50    1.00
  YS02001596YS02001600 CONDUIT    318.02     0  02:28      1.26    0.62    1.00
  YS02001600YS02001601 CONDUIT    317.87     0  02:18      1.12    0.55    1.00
  YS02001601YS02001602 CONDUIT    508.46     0  02:02      1.80    1.84    1.00
  YS02001602YS02001605 CONDUIT    508.97     0  02:02      1.80   10.77    1.00
  YS02001605YS02001607 CONDUIT    508.89     0  02:02      1.80    2.79    1.00
  YS02001607YS02001610 CONDUIT    508.09     0  02:02      0.65    0.48    1.00
  YS02001610YS02001613 CONDUIT    508.12     0  02:03      0.65    0.59    1.00
  YS02001613YS02001616 CONDUIT    507.67     0  02:02      0.65    0.44    1.00
  YS02001616YS02001619 CONDUIT    506.36     0  02:03      0.66    0.88    1.00
  YS02001619YS02001622 CONDUIT    973.94     0  02:13      1.24    1.44    1.00
  YS02001622YS02001625 CONDUIT    974.01     0  02:13      1.24    0.52    1.00
  YS02001625YS02001629 CONDUIT    932.38     0  02:06      1.19    0.44    1.00
  YS02001629YS02163301 CONDUIT    932.14     0  02:06      1.19    1.15    1.00
  YS02001633YS02163601 CONDUIT   1392.34     0  02:06      1.77    1.46    1.00
  YS02001641YS02001644 CONDUIT   1391.87     0  02:06      1.77    4.50    1.00
  YS02001644YS02001647 CONDUIT   1810.01     0  02:06      2.31    1.06    1.00
  YS02001647YS02001649 CONDUIT   1818.35     0  02:07      2.37    0.96    1.00
  YS02001649YS02001757 CONDUIT   2049.20     0  02:06      2.61    1.24    1.00
  YS02001652YS02001649 CONDUIT    960.70     0  02:13      1.22    0.48    1.00
  YS02001655YS02001652 CONDUIT    960.31     0  02:13      1.30    0.47    1.00
  YS02001658YS02001655 CONDUIT    960.22     0  02:13      1.89    0.41    1.00
  YS02001661YS02001658 CONDUIT    960.05     0  02:13      2.33    0.38    1.00
  YS02001664YS02001661 CONDUIT    959.05     0  02:13      2.34    0.30    0.79
  YS02001745YS02001748 CONDUIT    601.46     0  02:13      2.20    0.23    0.89
  YS02001748YS02001751 CONDUIT    601.88     0  02:13      1.72    0.30    1.00
  YS02001751YS02001754 CONDUIT    602.67     0  02:14      1.43    0.29    1.00
  YS02001754YS02001757 CONDUIT    601.89     0  02:14      0.77    0.24    1.00
  YS02001757CaochengTiaoxuchi CONDUIT   3556.32     0  02:12      4.57    1.54    1.00
  YS02001759YS02001757 CONDUIT   1459.64     0  02:12      1.86    1.04    1.00
  YS02001762YS02001759 CONDUIT    780.23     0  02:10      0.99    0.90    1.00
  YS02001765YS02001762 CONDUIT    779.70     0  02:10      0.99    0.73    1.00
  YS02001767YS02001765 CONDUIT    779.80     0  02:10      0.99    0.98    1.00
  YS02001770YS02001767 CONDUIT    779.13     0  02:10      0.99    3.09    1.00
  YS02001774YS02001770 CONDUIT    582.90     0  02:14      0.74    0.37    1.00
  YS02001779YS02001774 CONDUIT    583.47     0  02:14      0.74    0.29    1.00
  YS02001783YS02001784 CONDUIT   1167.06     0  02:11      2.32    1.61    1.00
  YS02001784YS02001785 CONDUIT   1168.10     0  02:11      2.32    2.72    1.00
  YS02001786YS02001788 CONDUIT   1167.99     0  02:11      2.49    2.25    0.89
  YS02001788YS02001790 CONDUIT   1180.18     0  02:12      2.72    0.87    0.84
  YS02001790YS02001791 CONDUIT   1287.36     0  02:15      3.43    1.40    0.70
  YS02001791YS02001793 CONDUIT   1244.11     0  02:16      6.71    0.53    0.45
  YS02001793JiankangQianchi CONDUIT   1224.46     0  02:11      2.46    0.10    0.65
  YS02001882YS02001884 CONDUIT     43.13     0  02:05      0.11    0.05    1.00
  YS02001884YS02001887 CONDUIT     71.19     0  02:04      0.09    0.09    1.00
  YS02001887YS02001890 CONDUIT    905.88     0  02:13      1.15    1.55    1.00
  YS02001890YS02001895 CONDUIT    517.26     0  02:17      0.66    0.24    1.00
  YS02001895YS02001898 CONDUIT    518.28     0  02:17      0.66    0.90    1.00
  YS02001898YS02001901 CONDUIT    517.48     0  02:17      0.66    0.33    1.00
  YS02001901YS02001904 CONDUIT    517.64     0  02:17      0.66    0.80    1.00
  YS02001904YS02001907 CONDUIT    518.62     0  02:17      0.66    0.18    1.00
  YS02001907YS02006553 CONDUIT    804.87     0  02:29      0.89    0.95    1.00
  YS02001910YS02001907 CONDUIT   1546.51     0  02:13      1.97    0.87    1.00
  YS02001915YS02001910 CONDUIT   1546.29     0  02:13      1.97    0.77    1.00
  YS02001918YS02001915 CONDUIT    518.35     0  02:13      0.66    0.29    1.00
  YS02001920YS02001918 CONDUIT    517.37     0  02:13      0.66    0.50    1.00
  YS02001923YS02001920 CONDUIT    513.73     0  02:13      0.69    0.23    1.00
  YS02001926YS02001923 CONDUIT    514.42     0  02:13      0.96    0.73    1.00
  YS02001929YS02001926 CONDUIT    514.16     0  02:13      1.11    0.24    1.00
  YS02006553YS02006556 CONDUIT    805.51     0  02:29      1.03    0.69    1.00
  YS02006556YS02006558 CONDUIT    807.68     0  02:29      1.03    0.64    1.00
  YS02006558YS02006561 CONDUIT   1167.23     0  02:11      4.13    2.58    1.00
  YS02006561YS02001783 CONDUIT   1167.07     0  02:11      2.32    0.60    1.00
  YS02163301YS02001633 CONDUIT    932.13     0  02:06      1.19    0.88    1.00
  YS02163601YS02164001 CONDUIT   1392.25     0  02:06      1.77    1.23    1.00
  YS02164001YS02001641 CONDUIT   1392.07     0  02:06      1.77    1.90    1.00
  CC-R1                PUMP       683.00     0  00:00              1.00
  CC-R2                PUMP       683.00     0  00:00              1.00
  CC-S1                PUMP       200.00     0  00:00              1.00
  CC-S2                PUMP       200.00     0  00:00              1.00
  JK-R1                PUMP      1000.00     0  00:00              1.00
  JK-R2                PUMP      1000.00     0  00:00              1.00
  JK-S                 PUMP       300.00     0  00:00              1.00
  
  
  ***************************
  Flow Classification Summary
  ***************************
  
  -------------------------------------------------------------------------------------
                      Adjusted    ---------- Fraction of Time in Flow Class ---------- 
                       /Actual         Up    Down  Sub   Sup   Up    Down  Norm  Inlet 
  Conduit               Length    Dry  Dry   Dry   Crit  Crit  Crit  Crit  Ltd   Ctrl  
  -------------------------------------------------------------------------------------
  1                       1.00   0.00  0.00  0.00  0.00  1.00  0.00  0.00  0.37  0.00
  WS02003060WS02003069    1.00   0.00  0.00  0.00  0.98  0.02  0.00  0.00  0.72  0.00
  WS02003066WSF200        1.00   0.12  0.00  0.00  0.00  0.88  0.00  0.00  0.80  0.00
  WS02003067WS02003066    1.00   0.10  0.02  0.00  0.88  0.00  0.00  0.00  0.00  0.00
  WS02003069WS02003072    1.00   0.00  0.00  0.00  0.99  0.01  0.00  0.00  0.78  0.00
  WS02003072WS02003073    1.00   0.00  0.00  0.00  0.00  0.00  0.00  1.00  0.00  0.00
  WS02004401WS02004402    1.00   0.02  0.00  0.00  0.98  0.00  0.00  0.00  0.00  0.00
  WS02004402WS02004403    1.00   0.02  0.00  0.00  0.97  0.00  0.00  0.00  0.00  0.00
  WS02004403WS02004404    1.00   0.00  0.03  0.00  0.97  0.00  0.00  0.00  0.00  0.00
  WS02004404WS02004405    1.00   0.00  0.00  0.00  1.00  0.00  0.00  0.00  0.01  0.00
  WS02004405WS02004406    1.00   0.00  0.00  0.00  1.00  0.00  0.00  0.00  0.00  0.00
  WS02004406WS02004407    1.00   0.00  0.05  0.00  0.95  0.00  0.00  0.00  0.00  0.00
  WS02004407WS02004409    1.00   0.05  0.00  0.00  0.94  0.01  0.00  0.00  0.95  0.00
  WS02004409WS02004410    1.00   0.05  0.00  0.00  0.95  0.00  0.00  0.00  0.03  0.00
  WS02004410WS02004411    1.00   0.05  0.00  0.00  0.95  0.00  0.00  0.00  0.01  0.00
  WS02004411WS02004412    1.00   0.05  0.00  0.00  0.95  0.00  0.00  0.00  0.00  0.00
  WS02004412WS02004413    1.00   0.05  0.00  0.00  0.94  0.00  0.00  0.00  0.01  0.00
  WS02004413WS02003067    1.00   0.06  0.04  0.00  0.00  0.00  0.90  0.00  0.00  0.00
  WS02006109WS02006110    1.00   0.00  0.01  0.00  0.98  0.00  0.01  0.00  0.00  0.00
  WS02006110WS02006113    1.00   0.01  0.01  0.00  0.98  0.00  0.00  0.00  0.00  0.00
  WS02006111WS02006112    1.00   0.02  0.00  0.00  0.98  0.00  0.00  0.00  0.98  0.00
  WS02006112WS02006115    1.00   0.02  0.00  0.00  0.97  0.00  0.00  0.00  0.00  0.00
  WS02006113WS02006111    1.00   0.02  0.00  0.00  0.00  0.98  0.00  0.00  0.10  0.00
  WS02006115WS02006116    1.00   0.02  0.00  0.00  0.97  0.00  0.00  0.01  0.00  0.00
  WS02006116WS02004401    1.00   0.02  0.00  0.00  0.98  0.00  0.00  0.00  0.00  0.00
  WS02006228WS02006109    1.00   0.00  0.00  0.00  1.00  0.00  0.00  0.00  0.00  0.00
  WS02006229WS02006228    1.00   0.00  0.00  0.00  0.99  0.00  0.00  0.01  0.00  0.00
  WS02006230WS02006229    1.00   0.00  0.00  0.00  0.99  0.00  0.00  0.01  0.04  0.00
  WS02006231WS02006230    1.00   0.00  0.00  0.00  0.23  0.00  0.76  0.00  0.00  0.00
  WS02006232WS02006231    1.00   0.00  0.00  0.00  0.99  0.00  0.01  0.00  0.00  0.00
  WS02006234WS02006232    1.00   0.00  0.00  0.00  1.00  0.00  0.00  0.00  0.05  0.00
  WS02006235WS02006234    1.00   0.00  0.00  0.00  0.86  0.00  0.14  0.00  0.00  0.00
  WS02006238WS02006235    1.00   0.00  0.00  0.00  1.00  0.00  0.00  0.00  0.00  0.00
  WS02006239WS02006238    1.00   0.00  0.00  0.00  1.00  0.00  0.00  0.00  0.21  0.00
  WS02006240WS02006239    1.00   0.00  0.00  0.00  0.64  0.00  0.00  0.36  0.04  0.00
  WS02006242WS02006240    1.00   0.00  0.00  0.00  0.99  0.00  0.01  0.00  0.00  0.00
  WS02006243WS02006242    1.00   0.00  0.00  0.00  0.99  0.00  0.00  0.01  0.63  0.00
  WS02006245WS02006243    1.00   0.00  0.00  0.00  0.77  0.00  0.00  0.23  0.00  0.00
  WS02006247WS02006245    1.00   0.00  0.00  0.00  0.96  0.00  0.00  0.04  0.00  0.00
  WS02006248WS02006247    1.00   0.00  0.00  0.00  0.98  0.00  0.00  0.02  0.54  0.00
  WS02006249WS02006248    1.00   0.00  0.00  0.00  0.41  0.00  0.59  0.00  0.00  0.00
  WS02006251WS02006249    1.00   0.00  0.00  0.00  0.99  0.01  0.00  0.00  0.61  0.00
  WS02006252WS02006251    1.00   0.00  0.60  0.00  0.07  0.00  0.33  0.00  0.00  0.00
  WS02006256WS02006235    1.00   0.00  0.00  0.00  0.98  0.02  0.00  0.00  0.00  0.00
  WSF200WS02003060        1.00   0.00  0.12  0.00  0.41  0.46  0.00  0.00  0.61  0.00
  YS02001580YS02001583    1.00   0.25  0.56  0.00  0.19  0.00  0.00  0.00  0.65  0.00
  YS02001583YS02001586    1.00   0.42  0.34  0.00  0.24  0.00  0.00  0.00  0.65  0.00
  YS02001586YS02001590    1.00   0.13  0.00  0.00  0.43  0.04  0.00  0.40  0.37  0.00
  YS02001590YS02001593    1.00   0.13  0.01  0.00  0.11  0.00  0.75  0.00  0.00  0.00
  YS02001593YS02001596    1.00   0.14  0.00  0.00  0.13  0.01  0.00  0.73  0.02  0.00
  YS02001596YS02001600    1.00   0.14  0.00  0.00  0.19  0.01  0.00  0.66  0.04  0.00
  YS02001600YS02001601    1.00   0.13  0.01  0.00  0.86  0.00  0.00  0.00  0.61  0.00
  YS02001601YS02001602    1.00   0.13  0.01  0.00  0.86  0.00  0.00  0.00  0.00  0.00
  YS02001602YS02001605    1.00   0.14  0.00  0.00  0.86  0.00  0.00  0.00  0.00  0.00
  YS02001605YS02001607    1.00   0.14  0.00  0.00  0.86  0.00  0.00  0.00  0.00  0.00
  YS02001607YS02001610    1.00   0.13  0.01  0.00  0.86  0.00  0.00  0.00  0.02  0.00
  YS02001610YS02001613    1.00   0.13  0.00  0.00  0.87  0.00  0.00  0.00  0.01  0.00
  YS02001613YS02001616    1.00   0.13  0.00  0.00  0.87  0.00  0.00  0.00  0.01  0.00
  YS02001616YS02001619    1.00   0.13  0.00  0.00  0.87  0.00  0.00  0.00  0.00  0.00
  YS02001619YS02001622    1.00   0.13  0.00  0.00  0.87  0.00  0.00  0.00  0.28  0.00
  YS02001622YS02001625    1.00   0.13  0.00  0.00  0.87  0.00  0.00  0.00  0.05  0.00
  YS02001625YS02001629    1.00   0.13  0.05  0.00  0.15  0.00  0.67  0.00  0.00  0.00
  YS02001629YS02163301    1.00   0.16  0.01  0.00  0.83  0.00  0.00  0.00  0.00  0.00
  YS02001633YS02163601    1.00   0.00  0.01  0.00  0.99  0.00  0.00  0.00  0.15  0.00
  YS02001641YS02001644    1.00   0.00  0.01  0.00  0.99  0.00  0.00  0.00  0.00  0.00
  YS02001644YS02001647    1.00   0.00  0.18  0.00  0.82  0.00  0.00  0.00  0.00  0.00
  YS02001647YS02001649    1.00   0.00  0.18  0.00  0.52  0.30  0.00  0.00  0.56  0.00
  YS02001649YS02001757    1.00   0.00  0.00  0.00  0.68  0.32  0.00  0.00  0.46  0.00
  YS02001652YS02001649    1.00   0.00  0.00  0.00  0.96  0.04  0.00  0.00  0.75  0.00
  YS02001655YS02001652    1.00   0.00  0.00  0.00  0.17  0.02  0.00  0.81  0.06  0.00
  YS02001658YS02001655    1.00   0.00  0.14  0.00  0.65  0.21  0.00  0.00  0.71  0.00
  YS02001661YS02001658    1.00   0.14  0.00  0.00  0.48  0.37  0.00  0.00  0.70  0.00
  YS02001664YS02001661    1.00   0.13  0.00  0.00  0.77  0.11  0.00  0.00  0.85  0.00
  YS02001745YS02001748    1.00   0.00  0.00  0.00  0.08  0.01  0.00  0.91  0.04  0.00
  YS02001748YS02001751    1.00   0.00  0.00  0.00  0.81  0.19  0.00  0.00  0.77  0.00
  YS02001751YS02001754    1.00   0.00  0.00  0.00  0.15  0.00  0.00  0.85  0.03  0.00
  YS02001754YS02001757    1.00   0.00  0.00  0.00  1.00  0.00  0.00  0.00  0.84  0.00
  YS02001757CaochengTiaoxuchi    1.00   0.00  0.00  0.00  0.95  0.05  0.00  0.00  0.79  0.00
  YS02001759YS02001757    1.00   0.00  0.00  0.00  1.00  0.00  0.00  0.00  0.60  0.00
  YS02001762YS02001759    1.00   0.00  0.00  0.00  1.00  0.00  0.00  0.00  0.06  0.00
  YS02001765YS02001762    1.00   0.00  0.00  0.00  1.00  0.00  0.00  0.00  0.73  0.00
  YS02001767YS02001765    1.00   0.00  0.00  0.00  1.00  0.00  0.00  0.00  0.00  0.00
  YS02001770YS02001767    1.00   0.00  0.00  0.00  1.00  0.00  0.00  0.00  0.00  0.00
  YS02001774YS02001770    1.00   0.00  0.13  0.00  0.70  0.00  0.17  0.00  0.03  0.00
  YS02001779YS02001774    1.00   0.00  0.00  0.00  1.00  0.00  0.00  0.00  0.78  0.00
  YS02001783YS02001784    1.00   0.00  0.18  0.00  0.82  0.00  0.00  0.00  0.55  0.00
  YS02001784YS02001785    1.00   0.00  0.00  0.00  1.00  0.00  0.00  0.00  0.17  0.00
  YS02001786YS02001788    1.00   0.00  0.00  0.00  0.80  0.20  0.00  0.00  0.00  0.00
  YS02001788YS02001790    1.00   0.00  0.00  0.00  0.22  0.78  0.00  0.00  0.81  0.00
  YS02001790YS02001791    1.00   0.00  0.00  0.00  0.01  0.99  0.00  0.00  0.15  0.00
  YS02001791YS02001793    1.00   0.00  0.00  0.00  0.00  1.00  0.00  0.00  0.01  0.00
  YS02001793JiankangQianchi    1.00   0.00  0.00  0.00  0.99  0.01  0.00  0.00  0.95  0.00
  YS02001882YS02001884    1.00   0.15  0.01  0.00  0.84  0.00  0.00  0.00  0.00  0.00
  YS02001884YS02001887    1.00   0.06  0.05  0.00  0.89  0.00  0.00  0.00  0.00  0.00
  YS02001887YS02001890    1.00   0.00  0.00  0.00  0.97  0.00  0.03  0.00  0.00  0.00
  YS02001890YS02001895    1.00   0.00  0.16  0.00  0.83  0.00  0.00  0.00  0.00  0.00
  YS02001895YS02001898    1.00   0.17  0.00  0.00  0.81  0.00  0.02  0.00  0.00  0.00
  YS02001898YS02001901    1.00   0.17  0.00  0.00  0.83  0.00  0.00  0.00  0.01  0.00
  YS02001901YS02001904    1.00   0.17  0.00  0.00  0.83  0.00  0.00  0.00  0.00  0.00
  YS02001904YS02001907    1.00   0.00  0.17  0.00  0.83  0.00  0.00  0.00  0.00  0.00
  YS02001907YS02006553    1.00   0.00  0.02  0.00  0.98  0.00  0.00  0.00  0.00  0.00
  YS02001910YS02001907    1.00   0.00  0.00  0.00  0.97  0.00  0.00  0.03  0.12  0.00
  YS02001915YS02001910    1.00   0.00  0.00  0.00  0.97  0.03  0.00  0.00  0.16  0.00
  YS02001918YS02001915    1.00   0.00  0.01  0.00  0.98  0.02  0.00  0.00  0.75  0.00
  YS02001920YS02001918    1.00   0.00  0.01  0.00  0.99  0.00  0.00  0.00  0.00  0.00
  YS02001923YS02001920    1.00   0.00  0.00  0.00  1.00  0.00  0.00  0.00  0.92  0.00
  YS02001926YS02001923    1.00   0.00  0.07  0.00  0.06  0.00  0.87  0.00  0.00  0.00
  YS02001929YS02001926    1.00   0.00  0.13  0.00  0.87  0.00  0.00  0.00  0.82  0.00
  YS02006553YS02006556    1.00   0.01  0.00  0.00  0.99  0.00  0.00  0.00  0.03  0.00
  YS02006556YS02006558    1.00   0.00  0.00  0.00  1.00  0.00  0.00  0.00  0.00  0.00
  YS02006558YS02006561    1.00   0.18  0.00  0.00  0.06  0.76  0.00  0.00  0.19  0.00
  YS02006561YS02001783    1.00   0.18  0.00  0.00  0.09  0.73  0.00  0.00  0.69  0.00
  YS02163301YS02001633    1.00   0.00  0.16  0.00  0.84  0.00  0.00  0.00  0.00  0.00
  YS02163601YS02164001    1.00   0.00  0.08  0.00  0.92  0.00  0.00  0.00  0.00  0.00
  YS02164001YS02001641    1.00   0.01  0.07  0.00  0.92  0.00  0.00  0.00  0.06  0.00
  
  
  *************************
  Conduit Surcharge Summary
  *************************
  
  ----------------------------------------------------------------------------
                                                           Hours        Hours 
                         --------- Hours Full --------   Above Full   Capacity
  Conduit                Both Ends  Upstream  Dnstream   Normal Flow   Limited
  ----------------------------------------------------------------------------
  WS02003072WS02003073        0.01      0.01      0.01      0.78         0.01
  WS02004403WS02004404        0.01      0.01      0.02      0.01         0.01
  WS02004404WS02004405        0.01      0.02      0.01      2.37         0.01
  WS02004405WS02004406        0.01      0.01      0.01      0.42         0.01
  WS02006109WS02006110        0.48      0.48      1.62      0.53         0.01
  WS02006110WS02006113        0.01      0.01      1.56      0.01         0.01
  WS02006111WS02006112        0.01      0.01      2.03      0.01         0.01
  WS02006112WS02006115        0.01      0.01      0.56      0.01         0.01
  WS02006228WS02006109        1.46      1.63      1.46      2.14         1.46
  WS02006229WS02006228        1.45      1.49      1.45      1.94         1.44
  WS02006230WS02006229        1.78      1.92      1.78      3.12         1.78
  WS02006231WS02006230        0.49      0.49      0.57      2.68         0.01
  WS02006232WS02006231        0.54      0.54      1.62      0.60         0.01
  WS02006234WS02006232        1.40      1.40      1.62      0.58         0.58
  WS02006235WS02006234        0.78      0.78      1.47      2.51         0.01
  WS02006238WS02006235        1.50      1.50      1.62      0.01         0.01
  WS02006239WS02006238        1.52      1.58      1.54      1.69         1.31
  WS02006240WS02006239        1.40      1.44      1.40      1.67         1.21
  WS02006242WS02006240        1.41      1.41      1.63      1.94         0.01
  WS02006243WS02006242        1.44      1.44      1.55      0.01         0.03
  WS02006245WS02006243        1.41      1.42      1.42      1.19         0.97
  WS02006247WS02006245        1.41      1.45      1.41      2.26         1.40
  WS02006248WS02006247        1.40      1.40      1.43      0.01         0.03
  WS02006249WS02006248        1.39      1.39      1.41      2.20         0.01
  WS02006251WS02006249        1.40      1.41      1.41      1.81         1.35
  WS02006252WS02006251        1.91      1.91      1.94      1.92         0.01
  WS02006256WS02006235        2.53      2.58      6.20      0.99         0.01
  YS02001580YS02001583        0.60      0.60      0.64      0.01         0.01
  YS02001583YS02001586        0.61      0.61      0.71      0.01         0.01
  YS02001586YS02001590        0.71      0.71      0.78      0.01         0.01
  YS02001590YS02001593        0.78      0.78      0.80      0.82         0.01
  YS02001593YS02001596        0.79      0.79      0.89      0.01         0.01
  YS02001596YS02001600        0.94      0.94      1.04      0.01         0.01
  YS02001600YS02001601        1.10      1.10      1.37      0.01         0.01
  YS02001601YS02001602        1.26      1.26      1.41      1.05         0.01
  YS02001602YS02001605        1.22      1.22      1.26      2.25         0.01
  YS02001605YS02001607        1.17      1.22      1.17      1.33         1.17
  YS02001607YS02001610        0.75      0.75      0.77      0.01         0.01
  YS02001610YS02001613        0.74      0.74      0.77      0.01         0.01
  YS02001613YS02001616        0.70      0.70      0.74      0.01         0.01
  YS02001616YS02001619        0.69      0.69      0.70      0.01         0.03
  YS02001619YS02001622        0.68      0.69      0.68      0.81         0.67
  YS02001622YS02001625        0.68      0.68      0.86      0.01         0.01
  YS02001625YS02001629        0.63      0.63      0.86      0.01         0.01
  YS02001629YS02163301        0.85      0.85      0.85      0.25         0.23
  YS02001633YS02163601        0.87      0.87      0.90      0.38         0.38
  YS02001641YS02001644        0.77      0.80      0.77      1.45         0.76
  YS02001644YS02001647        0.55      0.55      0.77      0.04         0.01
  YS02001647YS02001649        0.55      0.55      0.65      0.01         0.01
  YS02001649YS02001757        0.65      0.65      0.71      0.11         0.11
  YS02001652YS02001649        0.49      0.49      0.65      0.01         0.01
  YS02001655YS02001652        0.34      0.34      0.47      0.01         0.01
  YS02001658YS02001655        0.20      0.20      0.34      0.01         0.01
  YS02001661YS02001658        0.04      0.04      0.20      0.01         0.01
  YS02001664YS02001661        0.01      0.01      0.09      0.01         0.01
  YS02001745YS02001748        0.01      0.01      0.13      0.01         0.01
  YS02001748YS02001751        0.18      0.18      0.25      0.01         0.01
  YS02001751YS02001754        0.25      0.25      0.37      0.01         0.01
  YS02001754YS02001757        0.41      0.41      0.71      0.01         0.01
  YS02001757CaochengTiaoxuchi        0.60      0.71      1.24      0.40         0.25
  YS02001759YS02001757        0.61      0.61      0.71      0.04         0.06
  YS02001762YS02001759        0.57      0.57      0.61      0.01         0.02
  YS02001765YS02001762        0.53      0.53      0.57      0.01         0.01
  YS02001767YS02001765        0.51      0.51      0.53      0.01         0.03
  YS02001770YS02001767        0.50      0.50      0.51      0.53         0.39
  YS02001774YS02001770        0.48      0.48      0.56      0.01         0.01
  YS02001779YS02001774        0.38      0.38      0.56      0.01         0.01
  YS02001783YS02001784        0.50      0.53      0.50      0.67         0.50
  YS02001784YS02001785        0.40      0.50      0.40      0.89         0.40
  YS02001786YS02001788        0.01      0.40      0.01      0.78         0.01
  YS02001790YS02001791        0.01      0.01      0.01      0.49         0.01
  YS02001793JiankangQianchi        0.01      0.01      6.53      0.01         0.01
  YS02001882YS02001884        0.48      0.48      0.48      0.01         0.01
  YS02001884YS02001887        0.51      0.51      0.52      0.01         0.01
  YS02001887YS02001890        0.53      0.53      0.54      0.13         0.01
  YS02001890YS02001895        0.46      0.46      0.56      0.01         0.01
  YS02001895YS02001898        0.46      0.46      0.46      0.01         0.01
  YS02001898YS02001901        0.47      0.47      0.50      0.01         0.01
  YS02001901YS02001904        0.50      0.50      0.50      0.01         0.01
  YS02001904YS02001907        0.50      0.50      0.76      0.01         0.01
  YS02001907YS02006553        0.91      0.91      0.97      0.01         0.01
  YS02001910YS02001907        0.56      0.56      0.75      0.01         0.01
  YS02001915YS02001910        0.47      0.47      0.56      0.01         0.01
  YS02001918YS02001915        0.39      0.39      0.47      0.01         0.01
  YS02001920YS02001918        0.39      0.39      0.40      0.01         0.01
  YS02001923YS02001920        0.35      0.35      0.40      0.01         0.01
  YS02001926YS02001923        0.12      0.12      0.15      0.01         0.01
  YS02001929YS02001926        0.01      0.01      0.15      0.01         0.01
  YS02006553YS02006556        0.65      0.65      0.76      0.01         0.01
  YS02006556YS02006558        0.70      0.70      0.78      0.01         0.01
  YS02006558YS02006561        0.42      0.64      0.42      0.85         0.42
  YS02006561YS02001783        0.36      0.36      0.53      0.01         0.01
  YS02163301YS02001633        0.85      0.85      0.89      0.01         0.01
  YS02163601YS02164001        0.81      0.81      0.90      0.09         0.01
  YS02164001YS02001641        0.80      0.81      0.80      0.70         0.59
  
  
  ***************
  Pumping Summary
  ***************
  
  ---------------------------------------------------------------------------------------------------------
                                                  Min       Avg       Max     Total     Power    % Time Off
                        Percent   Number of      Flow      Flow      Flow    Volume     Usage    Pump Curve
  Pump                 Utilized   Start-Ups       LPS       LPS       LPS  10^6 ltr     Kw-hr    Low   High
  ---------------------------------------------------------------------------------------------------------
  CC-R1                   22.25          24      0.00    683.00    683.00     4.377     78.29    0.0   43.7
  CC-R2                   19.68          24      0.00    683.00    683.00     3.872     69.70    0.0   37.9
  CC-S1                   27.94          17      0.00    200.00    200.00     1.610      9.89    0.0    0.0
  CC-S2                   25.59          31      0.00    200.00    200.00     1.474      9.14    0.0    0.0
  JK-R1                    7.72          15      0.00   1000.00   1000.00     2.225     23.21    0.0    0.0
  JK-R2                    2.74          15      0.00   1000.00   1000.00     0.790      7.24    0.0    0.0
  JK-S                    11.88          36      0.00    300.00    300.00     1.026     16.65    0.0    0.0
  

  Analysis begun on:  Mon Dec 30 10:18:59 2024
  Analysis ended on:  Mon Dec 30 10:19:00 2024
  Total elapsed time: 00:00:01