
  EPA STORM WATER MANAGEMENT MODEL - VERSION 5.2 (Build 5.2.4)
  PYSWMM TOOLKIT API - VERSION v1.0 (2023-11-27)
  ------------------------------------------------------------

  WARNING 04: minimum elevation drop used for Conduit WS02004404WS02004405
  WARNING 03: negative offset ignored for Link YS02001904YS02001907
  
  ****************
  Analysis Options
  ****************
  Flow Units ............... LPS
  Process Models:
    Rainfall/Runoff ........ YES
    RDII ................... NO
    Snowmelt ............... NO
    Groundwater ............ NO
    Flow Routing ........... YES
    Ponding Allowed ........ NO
    Water Quality .......... NO
  Infiltration Method ...... HORTON
  Flow Routing Method ...... DYNWAVE
  Surcharge Method ......... EXTRAN
  Starting Date ............ 08/28/2015 08:00:00
  Ending Date .............. 08/28/2015 16:00:00
  Antecedent Dry Days ...... 8.0
  Report Time Step ......... 00:01:00
  Wet Time Step ............ 00:01:00
  Dry Time Step ............ 00:01:00
  Routing Time Step ........ 30.00 sec
  Variable Time Step ....... YES
  Maximum Trials ........... 8
  Number of Threads ........ 4
  Head Tolerance ........... 0.001500 m
  
  
  **************************        Volume         Depth
  Runoff Quantity Continuity     hectare-m            mm
  **************************     ---------       -------
  Total Precipitation ......         2.746        82.775
  Evaporation Loss .........         0.000         0.000
  Infiltration Loss ........         0.102         3.071
  Surface Runoff ...........         2.611        78.727
  Final Storage ............         0.033         0.995
  Continuity Error (%) .....        -0.022
  
  
  **************************        Volume        Volume
  Flow Routing Continuity        hectare-m      10^6 ltr
  **************************     ---------     ---------
  Dry Weather Inflow .......         0.025         0.251
  Wet Weather Inflow .......         2.611        26.112
  Groundwater Inflow .......         0.000         0.000
  RDII Inflow ..............         0.000         0.000
  External Inflow ..........         0.083         0.834
  External Outflow .........         1.767        17.668
  Flooding Loss ............         1.024        10.240
  Evaporation Loss .........         0.000         0.000
  Exfiltration Loss ........         0.000         0.000
  Initial Stored Volume ....         0.243         2.431
  Final Stored Volume ......         0.181         1.814
  Continuity Error (%) .....        -0.318
  
  
  *************************
  Highest Continuity Errors
  *************************
  Node YS02001884 (5.24%)
  Node YS02001583 (-4.41%)
  Node WS02006256 (-2.04%)
  
  
  ***************************
  Time-Step Critical Elements
  ***************************
  Link WS02006252WS02006251 (28.85%)
  Link WS02006238WS02006235 (22.41%)
  Link WS02004404WS02004405 (16.51%)
  Link YS02001791YS02001793 (9.52%)
  Link WS02003066WSF200 (6.74%)
  
  
  ********************************
  Highest Flow Instability Indexes
  ********************************
  Link WS02006113WS02006111 (38)
  Link WS02006238WS02006235 (26)
  Link WS02006256WS02006235 (21)
  Link WS02004404WS02004405 (21)
  Link WS02006252WS02006251 (20)
  
  
  *********************************
  Most Frequent Nonconverging Nodes
  *********************************
  Node CC-1 (15.65%)
  Node CC-2 (15.65%)
  Node JK-1 (15.65%)
  Node JK-2 (15.65%)
  Node WSC (15.65%)
  
  
  *************************
  Routing Time Step Summary
  *************************
  Minimum Time Step           :     0.00 sec
  Average Time Step           :     2.49 sec
  Maximum Time Step           :     6.43 sec
  % of Time in Steady State   :     0.00
  Average Iterations per Step :     3.54
  % of Steps Not Converging   :    15.65
  Time Step Frequencies       :
     30.000 - 13.228 sec      :     0.00 %
     13.228 -  5.833 sec      :    11.17 %
      5.833 -  2.572 sec      :    25.04 %
      2.572 -  1.134 sec      :    30.21 %
      1.134 -  0.500 sec      :    33.57 %
  
  
  ***************************
  Subcatchment Runoff Summary
  ***************************
  
  ------------------------------------------------------------------------------------------------------------------------------
                            Total      Total      Total      Total     Imperv       Perv      Total       Total     Peak  Runoff
                           Precip      Runon       Evap      Infil     Runoff     Runoff     Runoff      Runoff   Runoff   Coeff
  Subcatchment                 mm         mm         mm         mm         mm         mm         mm    10^6 ltr      LPS
  ------------------------------------------------------------------------------------------------------------------------------
  sub60                     82.77       0.00       0.00       1.84      71.64       8.10      79.74        1.05   715.37   0.963
  sub61                     82.77       0.00       0.00       2.67      67.58      11.41      78.99        1.45   993.77   0.954
  sub62                     82.77       0.00       0.00       1.23      74.87       5.40      80.27        2.20  1411.63   0.970
  sub63                     82.77       0.00       0.00       4.92      57.80      19.09      76.89        1.75  1133.71   0.929
  sub64                     82.77       0.00       0.00       2.49      69.16       9.93      79.09        1.90  1159.30   0.955
  sub65                     82.77       0.00       0.00       2.15      70.76       8.61      79.37        2.19  1294.82   0.959
  sub66                     82.77       0.00       0.00       6.12      57.70      17.89      75.59        3.52  1733.33   0.913
  sub67                     82.77       0.00       0.00       1.18      74.91       5.45      80.36        1.49  1072.52   0.971
  sub68                     82.77       0.00       0.00       2.21      70.00       9.38      79.39        2.18  1445.51   0.959
  sub69                     82.77       0.00       0.00       1.98      70.25      10.44      80.69        2.99  1721.99   0.975
  sub70                     82.77       0.00       0.00       6.64      54.47      21.50      75.97        2.19   975.02   0.918
  sub71                     82.77       0.00       0.00       1.26      74.83       5.37      80.20        2.10  1250.64   0.969
  sub72                     82.77       0.00       0.00       1.12      75.58       4.68      80.26        1.10   611.41   0.970
  
  
  ******************
  Node Depth Summary
  ******************
  
  ---------------------------------------------------------------------------------
                                 Average  Maximum  Maximum  Time of Max    Reported
                                   Depth    Depth      HGL   Occurrence   Max Depth
  Node                 Type       Meters   Meters   Meters  days hr:min      Meters
  ---------------------------------------------------------------------------------
  WS02003060           JUNCTION     0.22     0.38     5.32     0  02:39        0.38
  WS02003066           JUNCTION     0.18     0.30     5.85     0  02:38        0.30
  WS02003067           JUNCTION     0.46     0.70     6.02     0  02:38        0.70
  WS02003069           JUNCTION     0.24     0.43     5.02     0  02:40        0.43
  WS02003072           JUNCTION     0.30     0.50     4.87     0  02:38        0.50
  WS02003073           JUNCTION     0.17     0.30     4.36     0  02:38        0.30
  WS02004401           JUNCTION     0.56     0.88     6.88     0  02:34        0.88
  WS02004402           JUNCTION     0.59     0.91     6.87     0  02:37        0.90
  WS02004403           JUNCTION     0.61     0.92     6.85     0  02:34        0.92
  WS02004404           JUNCTION     0.69     1.05     6.90     0  02:30        1.00
  WS02004405           JUNCTION     0.67     0.97     6.82     0  02:43        0.97
  WS02004406           JUNCTION     0.69     0.96     6.79     0  02:43        0.96
  WS02004407           JUNCTION     0.16     0.30     6.61     0  02:34        0.30
  WS02004409           JUNCTION     0.35     0.67     6.44     0  02:37        0.67
  WS02004410           JUNCTION     0.38     0.68     6.40     0  02:37        0.68
  WS02004411           JUNCTION     0.40     0.69     6.37     0  02:37        0.69
  WS02004412           JUNCTION     0.42     0.70     6.34     0  02:38        0.70
  WS02004413           JUNCTION     0.57     0.86     6.33     0  02:38        0.86
  WS02006109           JUNCTION     0.63     1.11     7.73     0  02:18        0.98
  WS02006110           JUNCTION     0.64     1.14     7.72     0  02:11        0.93
  WS02006111           JUNCTION     0.17     0.29     6.99     0  02:04        0.29
  WS02006112           JUNCTION     0.72     1.09     6.97     0  02:18        1.08
  WS02006113           JUNCTION     0.26     0.46     7.35     0  03:02        0.46
  WS02006115           JUNCTION     0.45     0.78     6.91     0  02:31        0.77
  WS02006116           JUNCTION     0.53     0.86     6.90     0  02:45        0.86
  WS02006228           JUNCTION     0.63     1.12     7.77     0  02:10        1.02
  WS02006229           JUNCTION     0.60     1.15     7.85     0  02:10        1.04
  WS02006230           JUNCTION     0.60     1.31     8.05     0  02:10        1.18
  WS02006231           JUNCTION     0.41     1.03     8.15     0  02:17        0.94
  WS02006232           JUNCTION     0.54     1.72     8.76     0  03:50        1.15
  WS02006234           JUNCTION     0.47     1.58     8.74     0  03:50        1.21
  WS02006235           JUNCTION     0.51     1.34     8.51     0  03:50        1.32
  WS02006238           JUNCTION     0.53     1.36     8.50     0  03:16        1.36
  WS02006239           JUNCTION     0.50     1.82     9.03     0  03:50        1.35
  WS02006240           JUNCTION     0.47     2.00     9.29     0  03:50        1.32
  WS02006242           JUNCTION     0.53     1.55     8.82     0  03:50        1.37
  WS02006243           JUNCTION     0.45     1.48     8.90     0  03:50        1.25
  WS02006245           JUNCTION     0.45     1.23     8.72     0  02:11        1.23
  WS02006247           JUNCTION     0.46     1.22     8.72     0  02:11        1.22
  WS02006248           JUNCTION     0.43     1.10     8.69     0  02:55        1.10
  WS02006249           JUNCTION     0.45     1.09     8.69     0  01:54        1.09
  WS02006251           JUNCTION     0.45     1.52     9.19     0  01:54        1.17
  WS02006252           JUNCTION     0.32     1.50     9.74     0  00:00        0.74
  WS02006256           JUNCTION     1.01     2.35     9.28     0  00:00        2.35
  WSF200               JUNCTION     0.15     0.29     5.53     0  02:39        0.29
  YS02001580           JUNCTION     0.12     1.05     9.59     0  01:50        0.77
  YS02001583           JUNCTION     0.15     1.14     9.64     0  01:50        0.82
  YS02001586           JUNCTION     0.25     1.13     9.30     0  01:50        1.13
  YS02001590           JUNCTION     0.36     1.39     9.25     0  01:50        1.37
  YS02001593           JUNCTION     0.29     1.32     9.18     0  02:41        1.28
  YS02001596           JUNCTION     0.39     1.69     9.10     0  02:41        1.65
  YS02001600           JUNCTION     0.47     1.87     9.00     0  01:50        1.87
  YS02001601           JUNCTION     0.66     2.06     8.90     0  01:49        2.06
  YS02001602           JUNCTION     0.57     1.87     8.77     0  01:49        1.87
  YS02001605           JUNCTION     0.53     1.78     8.68     0  01:49        1.78
  YS02001607           JUNCTION     0.50     1.65     8.49     0  02:10        1.64
  YS02001610           JUNCTION     0.54     1.68     8.48     0  01:49        1.68
  YS02001613           JUNCTION     0.50     1.70     8.54     0  01:49        1.67
  YS02001616           JUNCTION     0.44     1.61     8.52     0  01:49        1.61
  YS02001619           JUNCTION     0.42     1.61     8.54     0  01:49        1.61
  YS02001622           JUNCTION     0.41     1.59     8.49     0  01:49        1.58
  YS02001625           JUNCTION     0.65     1.78     8.38     0  01:53        1.78
  YS02001629           JUNCTION     0.54     1.85     8.40     0  01:55        1.85
  YS02001633           JUNCTION     0.61     2.05     8.51     0  01:56        2.00
  YS02001641           JUNCTION     0.59     1.99     8.43     0  01:56        1.94
  YS02001644           JUNCTION     0.58     1.92     8.35     0  01:56        1.92
  YS02001647           JUNCTION     0.38     1.76     8.37     0  02:00        1.76
  YS02001649           JUNCTION     0.43     2.01     8.40     0  02:00        2.00
  YS02001652           JUNCTION     0.31     1.87     8.46     0  02:00        1.85
  YS02001655           JUNCTION     0.24     1.81     8.66     0  02:26        1.67
  YS02001658           JUNCTION     0.18     1.65     8.79     0  01:56        1.45
  YS02001661           JUNCTION     0.18     1.28     8.69     0  01:57        1.25
  YS02001664           JUNCTION     0.07     0.77     8.70     0  02:00        0.75
  YS02001745           JUNCTION     0.09     0.90     8.42     0  02:00        0.90
  YS02001748           JUNCTION     0.17     1.44     8.52     0  01:56        1.32
  YS02001751           JUNCTION     0.21     1.50     8.37     0  02:01        1.49
  YS02001754           JUNCTION     0.28     1.74     8.35     0  02:01        1.73
  YS02001757           JUNCTION     0.44     2.06     8.32     0  02:00        2.04
  YS02001759           JUNCTION     0.39     2.06     8.42     0  02:00        2.06
  YS02001762           JUNCTION     0.38     2.03     8.43     0  02:00        2.03
  YS02001765           JUNCTION     0.36     1.99     8.44     0  02:00        1.98
  YS02001767           JUNCTION     0.35     1.96     8.45     0  02:00        1.95
  YS02001770           JUNCTION     0.37     1.95     8.44     0  01:59        1.95
  YS02001774           JUNCTION     0.43     2.00     8.42     0  01:55        2.00
  YS02001779           JUNCTION     0.26     1.68     8.37     0  01:54        1.68
  YS02001783           JUNCTION     0.29     1.26     7.40     0  01:54        1.24
  YS02001784           JUNCTION     0.30     1.13     7.20     0  01:54        1.12
  YS02001786           JUNCTION     0.25     0.89     6.92     0  01:54        0.87
  YS02001788           JUNCTION     0.18     0.62     6.60     0  01:58        0.62
  YS02001790           JUNCTION     0.21     0.72     6.37     0  01:58        0.72
  YS02001791           JUNCTION     0.13     0.44     5.91     0  01:56        0.43
  YS02001793           JUNCTION     0.07     0.29     5.12     0  02:17        0.25
  YS02001882           JUNCTION     0.36     1.69     8.41     0  01:54        1.67
  YS02001884           JUNCTION     0.44     1.78     8.40     0  01:54        1.77
  YS02001887           JUNCTION     0.52     1.85     8.39     0  02:00        1.84
  YS02001890           JUNCTION     0.54     1.81     8.32     0  01:54        1.81
  YS02001895           JUNCTION     0.33     1.58     8.33     0  01:54        1.56
  YS02001898           JUNCTION     0.33     1.59     8.33     0  01:54        1.56
  YS02001901           JUNCTION     0.44     1.69     8.30     0  01:54        1.67
  YS02001904           JUNCTION     0.42     1.64     8.27     0  01:54        1.63
  YS02001907           JUNCTION     0.72     1.96     8.25     0  01:54        1.96
  YS02001910           JUNCTION     0.54     1.99     8.49     0  02:01        1.98
  YS02001915           JUNCTION     0.37     1.96     8.68     0  02:01        1.95
  YS02001918           JUNCTION     0.21     1.81     8.88     0  01:54        1.67
  YS02001920           JUNCTION     0.29     2.08     9.09     0  01:54        1.76
  YS02001923           JUNCTION     0.17     2.02     9.28     0  01:54        1.54
  YS02001926           JUNCTION     0.20     1.90     9.35     0  01:54        1.38
  YS02001929           JUNCTION     0.12     1.78     9.47     0  01:54        1.16
  YS02006553           JUNCTION     0.72     1.99     8.27     0  01:59        1.98
  YS02006556           JUNCTION     0.70     1.98     8.29     0  01:59        1.96
  YS02006558           JUNCTION     0.74     2.04     8.30     0  01:59        2.02
  YS02006561           JUNCTION     0.18     0.99     7.65     0  01:54        0.91
  YS02163301           JUNCTION     0.56     1.94     8.46     0  02:30        1.91
  YS02163601           JUNCTION     0.64     2.08     8.48     0  01:56        2.03
  YS02164001           JUNCTION     0.58     2.01     8.47     0  01:56        1.94
  CC-1                 OUTFALL      0.00     0.00     0.00     0  00:00        0.00
  CC-2                 OUTFALL      0.00     0.00     0.00     0  00:00        0.00
  JK-1                 OUTFALL      0.00     0.00     0.00     0  00:00        0.00
  JK-2                 OUTFALL      0.00     0.00     0.00     0  00:00        0.00
  WSC                  OUTFALL      0.17     0.30     0.97     0  02:39        0.30
  CC-storage           STORAGE      0.80     1.73     7.23     0  02:35        1.73
  JK-storage           STORAGE      1.48     4.23     5.03     0  02:17        4.12
  
  
  *******************
  Node Inflow Summary
  *******************
  
  -------------------------------------------------------------------------------------------------
                                  Maximum  Maximum                  Lateral       Total        Flow
                                  Lateral    Total  Time of Max      Inflow      Inflow     Balance
                                   Inflow   Inflow   Occurrence      Volume      Volume       Error
  Node                 Type           LPS      LPS  days hr:min    10^6 ltr    10^6 ltr     Percent
  -------------------------------------------------------------------------------------------------
  WS02003060           JUNCTION     16.53   556.96     0  02:39       0.476         4.9       0.045
  WS02003066           JUNCTION      0.00   540.19     0  02:38           0        4.42       0.033
  WS02003067           JUNCTION      0.00   540.09     0  02:38           0        4.43       0.094
  WS02003069           JUNCTION      0.32   557.15     0  02:39     0.00922         4.9       0.082
  WS02003072           JUNCTION      0.00   556.71     0  02:40           0         4.9       0.146
  WS02003073           JUNCTION      1.82   558.34     0  02:38      0.0524        4.94       0.116
  WS02004401           JUNCTION      0.00   541.56     0  02:46           0        4.52       0.228
  WS02004402           JUNCTION      0.00   543.05     0  02:30           0        4.51       0.232
  WS02004403           JUNCTION      0.00   542.70     0  02:44           0         4.5       0.225
  WS02004404           JUNCTION      0.16   560.85     0  02:40     0.00467         4.5       0.120
  WS02004405           JUNCTION      0.04   606.84     0  02:43      0.0011        4.49       0.228
  WS02004406           JUNCTION      0.00   547.54     0  02:54           0        4.48       0.465
  WS02004407           JUNCTION      0.00   541.87     0  02:41           0        4.46       0.025
  WS02004409           JUNCTION      0.00   541.13     0  02:34           0        4.46       0.059
  WS02004410           JUNCTION      0.00   540.64     0  02:34           0        4.46       0.100
  WS02004411           JUNCTION      0.00   540.47     0  02:37           0        4.45       0.127
  WS02004412           JUNCTION      0.00   540.48     0  02:38           0        4.45       0.168
  WS02004413           JUNCTION      0.00   540.37     0  02:38           0        4.44       0.312
  WS02006109           JUNCTION      1.23   555.28     0  03:16      0.0354        4.57       0.136
  WS02006110           JUNCTION      0.00   556.57     0  03:16           0        4.56       0.142
  WS02006111           JUNCTION      0.00   560.95     0  03:03           0        4.55       0.018
  WS02006112           JUNCTION      0.00   542.27     0  01:59           0        4.55       0.392
  WS02006113           JUNCTION      0.00   566.18     0  02:18           0        4.55       0.039
  WS02006115           JUNCTION      0.00   548.21     0  02:11           0        4.53       0.146
  WS02006116           JUNCTION      0.00   541.13     0  02:31           0        4.53       0.091
  WS02006228           JUNCTION      0.00   551.96     0  02:11           0        4.53       0.057
  WS02006229           JUNCTION      0.00   551.51     0  02:11           0        4.54       0.113
  WS02006230           JUNCTION     10.28   588.73     0  03:00       0.296        4.54       0.094
  WS02006231           JUNCTION      0.00   573.41     0  02:17           0        4.25       0.010
  WS02006232           JUNCTION      0.00   572.63     0  02:17           0        4.25       0.180
  WS02006234           JUNCTION      0.00   568.39     0  02:17           0        4.24      -0.364
  WS02006235           JUNCTION      0.00   561.18     0  02:10           0        4.35       0.385
  WS02006238           JUNCTION      0.00   423.87     0  02:55           0        3.27      -0.198
  WS02006239           JUNCTION      0.00   422.78     0  02:55           0        3.19      -0.207
  WS02006240           JUNCTION      0.00   420.03     0  02:55           0        3.16      -0.054
  WS02006242           JUNCTION      0.00   420.13     0  02:55           0        3.15      -0.047
  WS02006243           JUNCTION      0.00   419.37     0  02:55           0        3.13      -0.264
  WS02006245           JUNCTION      0.00   420.61     0  02:15           0        3.15       0.514
  WS02006247           JUNCTION      0.00   420.21     0  02:15           0        3.14      -0.013
  WS02006248           JUNCTION      0.00   420.27     0  02:15           0        3.14      -0.068
  WS02006249           JUNCTION      0.00   460.18     0  04:20           0        3.41       0.669
  WS02006251           JUNCTION      0.08   410.02     0  01:54     0.00222        3.41      -0.006
  WS02006252           JUNCTION      0.00   400.00     0  00:00           0         3.4      -0.377
  WS02006256           JUNCTION      0.00   300.00     0  00:00           0        1.58      -1.996
  WSF200               JUNCTION      0.00   540.24     0  02:39           0        4.42       0.010
  YS02001580           JUNCTION      0.00    90.49     0  01:50           0     0.00433      -1.379
  YS02001583           JUNCTION      0.00   145.81     0  01:50           0      0.0155      -4.222
  YS02001586           JUNCTION    975.02   975.02     0  02:04        2.19        2.21       0.057
  YS02001590           JUNCTION      0.00   318.01     0  01:57           0        1.52      -0.029
  YS02001593           JUNCTION      0.00   318.09     0  02:15           0        1.52       0.003
  YS02001596           JUNCTION      0.00   318.07     0  01:57           0        1.52      -0.012
  YS02001600           JUNCTION      0.00   318.09     0  01:57           0        1.52       0.011
  YS02001601           JUNCTION   1721.99  2039.49     0  02:03        2.99         4.5       0.021
  YS02001602           JUNCTION      0.00   512.61     0  01:49           0        2.48       0.023
  YS02001605           JUNCTION      0.00   512.80     0  01:49           0        2.33       0.027
  YS02001607           JUNCTION      0.00   512.97     0  01:49           0        2.33       0.079
  YS02001610           JUNCTION      0.00   951.26     0  02:05           0        2.83       0.079
  YS02001613           JUNCTION      0.00   615.15     0  02:05           0         2.2       0.073
  YS02001616           JUNCTION      0.00   615.16     0  02:05           0         2.2       0.023
  YS02001619           JUNCTION   1733.33  1733.33     0  02:03        3.52        5.23      -0.003
  YS02001622           JUNCTION      0.00  1053.82     0  02:05           0        4.72      -0.001
  YS02001625           JUNCTION      0.00  1500.86     0  02:05           0        5.06       0.185
  YS02001629           JUNCTION      0.00   930.78     0  01:53           0        3.77       0.025
  YS02001633           JUNCTION   1295.02  1386.67     0  01:53        2.19        5.51       0.062
  YS02001641           JUNCTION      0.00  1383.76     0  01:53           0        5.07       0.055
  YS02001644           JUNCTION   1159.34  1806.59     0  02:02         1.9        6.96       0.048
  YS02001647           JUNCTION      0.00  1799.62     0  01:53           0        6.06       0.007
  YS02001649           JUNCTION      0.00  2036.69     0  01:53           0        7.81       0.010
  YS02001652           JUNCTION      0.00  1143.48     0  02:01           0        1.75      -0.045
  YS02001655           JUNCTION      0.15  1143.52     0  02:01     0.00443        1.75      -0.159
  YS02001658           JUNCTION      0.00  1142.65     0  02:01           0        1.76      -0.049
  YS02001661           JUNCTION      0.00  1141.84     0  02:01           0        1.76       0.028
  YS02001664           JUNCTION   1133.71  1133.71     0  02:02        1.75        1.75      -0.006
  YS02001745           JUNCTION    715.37   715.37     0  02:02        1.05        1.05       0.157
  YS02001748           JUNCTION      0.04   727.98     0  02:01      0.0013        1.05      -0.264
  YS02001751           JUNCTION      0.01   728.89     0  02:01    0.000317        1.05       0.046
  YS02001754           JUNCTION      0.26   728.68     0  02:01     0.00749        1.06      -0.128
  YS02001757           JUNCTION      0.00  3521.33     0  01:58           0        12.1       0.047
  YS02001759           JUNCTION    993.81  1470.09     0  01:59        1.45        3.23      -0.011
  YS02001762           JUNCTION      0.00   769.51     0  01:57           0        1.78       0.004
  YS02001765           JUNCTION      0.00   768.91     0  01:57           0        1.78       0.018
  YS02001767           JUNCTION      0.54   770.11     0  01:57      0.0154        1.78       0.009
  YS02001770           JUNCTION   1411.78  1411.78     0  02:02         2.2        2.25       0.002
  YS02001774           JUNCTION      0.00   848.95     0  02:03           0       0.491       0.233
  YS02001779           JUNCTION      0.01   848.99     0  02:03    0.000144       0.445      -0.087
  YS02001783           JUNCTION      0.00  1170.27     0  01:59           0        4.58       0.004
  YS02001784           JUNCTION      1.06  1171.61     0  01:59      0.0305        4.61       0.012
  YS02001786           JUNCTION      0.06  1172.59     0  01:59     0.00162        4.62       0.015
  YS02001788           JUNCTION      0.07  1173.19     0  01:59     0.00204        4.62       0.007
  YS02001790           JUNCTION      0.15  1177.06     0  01:58     0.00446        4.62       0.042
  YS02001791           JUNCTION      0.00  1284.71     0  01:58           0        4.62      -0.044
  YS02001793           JUNCTION      0.00  1240.28     0  02:03           0        4.62       0.004
  YS02001882           JUNCTION      0.00    29.56     0  01:51           0      0.0128       5.846
  YS02001884           JUNCTION      0.00    65.09     0  01:51           0      0.0489       5.535
  YS02001887           JUNCTION   1072.97  1073.54     0  02:01        1.51        1.54       0.291
  YS02001890           JUNCTION      0.00  1074.12     0  02:01           0         1.5       0.344
  YS02001895           JUNCTION      0.00   517.81     0  02:08           0        1.27       0.141
  YS02001898           JUNCTION      0.00   518.13     0  02:08           0        1.26       0.018
  YS02001901           JUNCTION      0.00   518.37     0  02:08           0        1.27       0.266
  YS02001904           JUNCTION      0.00   518.03     0  02:08           0        1.27       0.221
  YS02001907           JUNCTION      0.00  2660.62     0  02:02           0        4.61       0.395
  YS02001910           JUNCTION      0.00  1861.51     0  02:03           0        3.28       0.221
  YS02001915           JUNCTION   1250.66  1861.54     0  02:03         2.1        3.32       0.047
  YS02001918           JUNCTION      0.00   618.07     0  02:03           0        1.25       0.015
  YS02001920           JUNCTION      2.87   617.58     0  02:03      0.0827        1.23       0.087
  YS02001923           JUNCTION      0.04   613.02     0  02:03     0.00109        1.13      -0.054
  YS02001926           JUNCTION      0.05   612.09     0  02:03      0.0015        1.11       0.009
  YS02001929           JUNCTION    611.41   611.41     0  02:03         1.1         1.1      -0.072
  YS02006553           JUNCTION      0.00   796.62     0  02:22           0        2.55       0.469
  YS02006556           JUNCTION      0.00   796.90     0  02:22           0        2.56       0.317
  YS02006558           JUNCTION   1446.39  1446.39     0  02:02        2.21        4.68       0.076
  YS02006561           JUNCTION      0.00  1170.82     0  01:59           0        4.58      -0.002
  YS02163301           JUNCTION      0.00   931.89     0  01:53           0        3.77       0.041
  YS02163601           JUNCTION      0.11  1386.31     0  01:53     0.00317        5.06       0.099
  YS02164001           JUNCTION      0.00  1385.58     0  01:53           0        5.06       0.050
  CC-1                 OUTFALL       0.00   683.00     0  00:00           0        5.31       0.000
  CC-2                 OUTFALL       0.00   683.00     0  00:00           0        4.25       0.000
  JK-1                 OUTFALL       0.00  1000.00     0  00:00           0        2.64       0.000
  JK-2                 OUTFALL       0.00  1000.00     0  00:00           0       0.528       0.000
  WSC                  OUTFALL       0.00   558.18     0  02:39           0        4.94       0.000
  CC-storage           STORAGE       0.00  3519.81     0  01:58           0        14.3      -0.224
  JK-storage           STORAGE       0.00  1243.86     0  02:03           0        4.77      -0.345
  
  
  **********************
  Node Surcharge Summary
  **********************
  
  Surcharging occurs when water rises above the top of the highest conduit.
  ---------------------------------------------------------------------
                                               Max. Height   Min. Depth
                                   Hours       Above Crown    Below Rim
  Node                 Type      Surcharged         Meters       Meters
  ---------------------------------------------------------------------
  WS02004404           JUNCTION        0.06          0.051        2.729
  WS02006109           JUNCTION        1.70          0.293        1.527
  WS02006110           JUNCTION        0.91          0.227        1.623
  WS02006112           JUNCTION        0.95          0.087        1.593
  WS02006228           JUNCTION        1.69          0.290        1.910
  WS02006229           JUNCTION        1.71          0.355        2.095
  WS02006230           JUNCTION        0.92          0.229        1.341
  WS02006231           JUNCTION        0.99          0.317        1.213
  WS02006232           JUNCTION        1.77          1.016        0.464
  WS02006234           JUNCTION        1.21          0.864        0.376
  WS02006235           JUNCTION        1.69          0.634        0.656
  WS02006238           JUNCTION        1.73          0.639        0.791
  WS02006239           JUNCTION        1.68          1.077        0.213
  WS02006240           JUNCTION        1.69          1.286        0.104
  WS02006242           JUNCTION        1.74          0.820        0.000
  WS02006243           JUNCTION        1.68          0.770        0.000
  WS02006245           JUNCTION        1.66          0.525        0.325
  WS02006247           JUNCTION        1.67          0.506        0.254
  WS02006248           JUNCTION        1.65          0.380        0.000
  WS02006249           JUNCTION        1.65          0.390        0.000
  WS02006251           JUNCTION        1.03          0.494        0.686
  WS02006252           JUNCTION        2.09          1.100        0.000
  WS02006256           JUNCTION        6.81          2.050        0.000
  YS02001580           JUNCTION        0.80          0.450        0.000
  YS02001583           JUNCTION        0.80          0.500        0.000
  YS02001586           JUNCTION        0.93          0.510        0.000
  YS02001590           JUNCTION        1.01          0.735        0.015
  YS02001593           JUNCTION        1.01          0.696        0.144
  YS02001596           JUNCTION        1.13          0.956        0.114
  YS02001600           JUNCTION        1.30          1.190        0.000
  YS02001601           JUNCTION        1.59          1.440        0.000
  YS02001602           JUNCTION        1.50          1.270        0.000
  YS02001605           JUNCTION        1.46          1.180        0.000
  YS02001607           JUNCTION        1.00          0.646        0.034
  YS02001610           JUNCTION        1.03          0.680        0.000
  YS02001613           JUNCTION        0.99          0.700        0.000
  YS02001616           JUNCTION        0.95          0.610        0.000
  YS02001619           JUNCTION        0.93          0.610        0.000
  YS02001622           JUNCTION        0.93          0.590        0.030
  YS02001625           JUNCTION        1.13          0.780        0.000
  YS02001629           JUNCTION        0.88          0.470        0.000
  YS02001633           JUNCTION        1.16          1.033        0.027
  YS02001641           JUNCTION        1.11          0.991        0.109
  YS02001644           JUNCTION        1.07          0.920        0.000
  YS02001647           JUNCTION        0.83          0.764        0.136
  YS02001649           JUNCTION        0.98          1.008        0.042
  YS02001652           JUNCTION        0.75          0.838        0.292
  YS02001655           JUNCTION        0.55          0.813        0.387
  YS02001658           JUNCTION        0.31          0.646        0.654
  YS02001661           JUNCTION        0.11          0.213        1.177
  YS02001748           JUNCTION        0.25          0.360        0.830
  YS02001751           JUNCTION        0.42          0.496        0.704
  YS02001754           JUNCTION        0.65          0.688        0.462
  YS02001757           JUNCTION        1.05          1.056        0.154
  YS02001759           JUNCTION        0.94          1.059        0.151
  YS02001762           JUNCTION        0.91          1.028        0.122
  YS02001765           JUNCTION        0.86          0.987        0.113
  YS02001767           JUNCTION        0.82          0.957        0.073
  YS02001770           JUNCTION        0.79          0.920        0.000
  YS02001774           JUNCTION        0.88          1.003        0.047
  YS02001779           JUNCTION        0.64          0.680        0.000
  YS02001783           JUNCTION        0.67          0.464        1.136
  YS02001784           JUNCTION        0.65          0.334        1.156
  YS02001786           JUNCTION        0.53          0.086        1.344
  YS02001882           JUNCTION        0.61          0.692        0.138
  YS02001884           JUNCTION        0.62          0.718        0.152
  YS02001887           JUNCTION        0.66          0.803        0.147
  YS02001890           JUNCTION        0.68          0.760        0.000
  YS02001895           JUNCTION        0.60          0.583        0.167
  YS02001898           JUNCTION        0.59          0.560        0.180
  YS02001901           JUNCTION        0.65          0.694        0.176
  YS02001904           JUNCTION        0.64          0.645        0.205
  YS02001907           JUNCTION        0.91          0.950        0.000
  YS02001910           JUNCTION        0.71          0.985        0.115
  YS02001915           JUNCTION        0.61          0.962        0.038
  YS02001918           JUNCTION        0.52          0.810        0.000
  YS02001920           JUNCTION        0.53          1.083        0.057
  YS02001923           JUNCTION        0.21          0.815        0.005
  YS02001926           JUNCTION        0.23          0.900        0.000
  YS02001929           JUNCTION        0.08          0.780        0.000
  YS02006553           JUNCTION        0.94          0.987        0.203
  YS02006556           JUNCTION        0.81          0.943        0.407
  YS02006558           JUNCTION        0.80          0.937        0.463
  YS02006561           JUNCTION        0.48          0.185        0.965
  YS02163301           JUNCTION        1.14          0.940        0.090
  YS02163601           JUNCTION        1.20          1.080        0.000
  YS02164001           JUNCTION        1.11          1.009        0.091
  
  
  *********************
  Node Flooding Summary
  *********************
  
  Flooding refers to all water that overflows a node, whether it ponds or not.
  --------------------------------------------------------------------------
                                                             Total   Maximum
                                 Maximum   Time of Max       Flood    Ponded
                        Hours       Rate    Occurrence      Volume     Depth
  Node                 Flooded       LPS   days hr:min    10^6 ltr    Meters
  --------------------------------------------------------------------------
  WS02006242              0.01     54.11      0  03:50       0.000     0.000
  WS02006243              0.01     50.42      0  03:50       0.000     0.000
  WS02006248              0.01      2.61      0  02:55       0.000     0.000
  WS02006249              1.01    113.80      0  01:54       0.252     0.000
  WS02006252              0.01    245.63      0  00:00       0.000     0.000
  WS02006256              1.46    293.19      0  00:00       0.491     0.000
  YS02001580              0.01     63.18      0  01:50       0.000     0.000
  YS02001583              0.01     37.76      0  01:50       0.000     0.000
  YS02001586              0.64    657.41      0  02:04       0.677     0.000
  YS02001600              0.01      8.36      0  02:41       0.000     0.000
  YS02001601              0.85   1641.67      0  02:03       2.023     0.000
  YS02001602              0.73     61.98      0  01:58       0.149     0.000
  YS02001605              0.01      2.00      0  01:49       0.000     0.000
  YS02001610              0.64    951.13      0  02:05       1.115     0.000
  YS02001613              0.01      8.17      0  01:49       0.000     0.000
  YS02001616              0.01     20.66      0  01:49       0.000     0.000
  YS02001619              0.09     79.00      0  02:03       0.015     0.000
  YS02001625              0.62   1500.70      0  02:05       1.726     0.000
  YS02001629              0.21    248.81      0  02:01       0.110     0.000
  YS02001644              0.28   1711.62      0  02:02       0.894     0.000
  YS02001770              0.06    126.10      0  02:02       0.017     0.000
  YS02001779              0.25    848.94      0  02:03       0.424     0.000
  YS02001890              0.26    558.58      0  02:01       0.229     0.000
  YS02001907              0.46   2660.14      0  02:02       2.117     0.000
  YS02001918              0.01     73.03      0  01:54       0.000     0.000
  YS02001926              0.01     23.02      0  01:54       0.000     0.000
  YS02001929              0.01    275.56      0  01:54       0.001     0.000
  YS02163601              0.01      3.31      0  02:30       0.000     0.000
  
  
  **********************
  Storage Volume Summary
  **********************
  
  ------------------------------------------------------------------------------------------------
                         Average    Avg   Evap  Exfil     Maximum    Max    Time of Max    Maximum
                          Volume   Pcnt   Pcnt   Pcnt      Volume   Pcnt     Occurrence    Outflow
  Storage Unit           1000 m³   Full   Loss   Loss     1000 m³   Full    days hr:min        LPS
  ------------------------------------------------------------------------------------------------
  CC-storage               2.239   34.9    0.0    0.0       4.808   75.0       0  02:35    1783.53
  JK-storage               0.074   25.5    0.0    0.0       0.212   72.9       0  02:17    2300.00
  
  
  ***********************
  Outfall Loading Summary
  ***********************
  
  -----------------------------------------------------------
                         Flow       Avg       Max       Total
                         Freq      Flow      Flow      Volume
  Outfall Node           Pcnt       LPS       LPS    10^6 ltr
  -----------------------------------------------------------
  CC-1                  40.03    683.00    683.00       5.307
  CC-2                  32.65    683.00    683.00       4.253
  JK-1                  14.00   1000.00   1000.00       2.642
  JK-2                   2.29   1000.00   1000.00       0.528
  WSC                   99.95    229.34    558.18       4.938
  -----------------------------------------------------------
  System                37.78   3595.34   3922.58      17.668
  
  
  ********************
  Link Flow Summary
  ********************
  
  -----------------------------------------------------------------------------
                                 Maximum  Time of Max   Maximum    Max/    Max/
                                  |Flow|   Occurrence   |Veloc|    Full    Full
  Link                 Type          LPS  days hr:min     m/sec    Flow   Depth
  -----------------------------------------------------------------------------
  1                    CONDUIT    558.18     0  02:39      2.83    0.19    0.30
  WS02003060WS02003069 CONDUIT    556.83     0  02:39      1.64    0.22    0.34
  WS02003066WSF200     CONDUIT    540.24     0  02:39      2.86    0.09    0.22
  WS02003067WS02003066 CONDUIT    540.19     0  02:38      1.21    0.17    0.42
  WS02003069WS02003072 CONDUIT    556.71     0  02:40      1.37    0.27    0.39
  WS02003072WS02003073 CONDUIT    556.52     0  02:38      1.44    1.20    0.37
  WS02004401WS02004402 CONDUIT    543.05     0  02:30      0.94    0.65    0.89
  WS02004402WS02004403 CONDUIT    542.70     0  02:44      0.94    0.78    0.91
  WS02004403WS02004404 CONDUIT    560.69     0  02:40      0.92    0.41    0.96
  WS02004404WS02004405 CONDUIT    606.80     0  02:43      1.03    5.95    0.98
  WS02004405WS02004406 CONDUIT    547.54     0  02:54      0.97    1.08    0.96
  WS02004406WS02004407 CONDUIT    541.87     0  02:41      1.04    0.24    0.63
  WS02004407WS02004409 CONDUIT    541.13     0  02:34      1.52    0.19    0.48
  WS02004409WS02004410 CONDUIT    540.64     0  02:34      0.99    0.70    0.68
  WS02004410WS02004411 CONDUIT    540.47     0  02:37      1.04    0.74    0.69
  WS02004411WS02004412 CONDUIT    540.48     0  02:38      1.11    0.77    0.70
  WS02004412WS02004413 CONDUIT    540.37     0  02:38      1.16    0.36    0.78
  WS02004413WS02003067 CONDUIT    540.09     0  02:38      1.11    0.23    0.59
  WS02006109WS02006110 CONDUIT    556.57     0  03:16      1.11    1.07    1.00
  WS02006110WS02006113 CONDUIT    566.18     0  02:18      1.37    0.52    0.78
  WS02006111WS02006112 CONDUIT    542.27     0  01:59      1.83    0.26    0.67
  WS02006112WS02006115 CONDUIT    548.21     0  02:11      0.82    0.32    0.88
  WS02006113WS02006111 CONDUIT    560.95     0  03:03      2.46    0.67    0.46
  WS02006115WS02006116 CONDUIT    541.13     0  02:31      1.06    0.69    0.79
  WS02006116WS02004401 CONDUIT    541.56     0  02:46      0.96    0.75    0.87
  WS02006228WS02006109 CONDUIT    554.05     0  03:16      1.10    2.42    1.00
  WS02006229WS02006228 CONDUIT    551.96     0  02:11      1.14    1.83    1.00
  WS02006230WS02006229 CONDUIT    551.51     0  02:11      1.43   12.27    1.00
  WS02006231WS02006230 CONDUIT    578.45     0  03:00      1.56    8.77    1.00
  WS02006232WS02006231 CONDUIT    573.41     0  02:17      1.50    1.20    1.00
  WS02006234WS02006232 CONDUIT    572.63     0  02:17      1.49    1.16    1.00
  WS02006235WS02006234 CONDUIT    568.39     0  02:17      1.48    6.00    1.00
  WS02006238WS02006235 CONDUIT    423.55     0  02:55      1.45    0.95    1.00
  WS02006239WS02006238 CONDUIT    423.87     0  02:55      1.10    1.36    1.00
  WS02006240WS02006239 CONDUIT    422.78     0  02:55      1.24    1.33    1.00
  WS02006242WS02006240 CONDUIT    420.03     0  02:55      1.13    1.67    1.00
  WS02006243WS02006242 CONDUIT    420.13     0  02:55      1.40    0.90    1.00
  WS02006245WS02006243 CONDUIT    419.37     0  02:55      1.45    1.24    1.00
  WS02006247WS02006245 CONDUIT    420.61     0  02:15      1.43    3.34    1.00
  WS02006248WS02006247 CONDUIT    420.21     0  02:15      1.44    0.91    1.00
  WS02006249WS02006248 CONDUIT    420.27     0  02:15      1.39    2.30    1.00
  WS02006251WS02006249 CONDUIT    460.18     0  04:20      2.06    1.33    1.00
  WS02006252WS02006251 CONDUIT    409.94     0  01:54     24.61    1.50    1.00
  WS02006256WS02006235 CONDUIT    288.91     0  00:00      4.23    3.06    1.00
  WSF200WS02003060     CONDUIT    540.43     0  02:39      2.06    0.12    0.28
  YS02001580YS02001583 CONDUIT     90.49     0  01:50      0.62    0.35    1.00
  YS02001583YS02001586 CONDUIT    145.81     0  01:50      0.62    0.22    1.00
  YS02001586YS02001590 CONDUIT    318.01     0  01:57      1.25    0.56    1.00
  YS02001590YS02001593 CONDUIT    318.09     0  02:15      1.13    2.00    1.00
  YS02001593YS02001596 CONDUIT    318.07     0  01:57      1.75    0.50    1.00
  YS02001596YS02001600 CONDUIT    318.09     0  01:57      1.26    0.62    1.00
  YS02001600YS02001601 CONDUIT    317.96     0  01:56      1.12    0.55    1.00
  YS02001601YS02001602 CONDUIT    512.61     0  01:49      1.81    1.85    1.00
  YS02001602YS02001605 CONDUIT    512.80     0  01:49      1.81   10.85    1.00
  YS02001605YS02001607 CONDUIT    512.97     0  01:49      1.81    2.81    1.00
  YS02001607YS02001610 CONDUIT    519.16     0  01:49      0.66    0.49    1.00
  YS02001610YS02001613 CONDUIT    615.19     0  02:05      0.78    0.71    1.00
  YS02001613YS02001616 CONDUIT    615.15     0  02:05      0.78    0.53    1.00
  YS02001616YS02001619 CONDUIT    615.16     0  02:05      0.78    1.07    1.00
  YS02001619YS02001622 CONDUIT   1053.82     0  02:05      1.34    1.55    1.00
  YS02001622YS02001625 CONDUIT   1053.40     0  02:05      1.34    0.56    1.00
  YS02001625YS02001629 CONDUIT    930.78     0  01:53      1.19    0.44    1.00
  YS02001629YS02163301 CONDUIT    931.89     0  01:53      1.19    1.15    1.00
  YS02001633YS02163601 CONDUIT   1386.20     0  01:53      1.76    1.46    1.00
  YS02001641YS02001644 CONDUIT   1382.59     0  01:53      1.76    4.47    1.00
  YS02001644YS02001647 CONDUIT   1799.62     0  01:53      2.30    1.06    1.00
  YS02001647YS02001649 CONDUIT   1801.50     0  01:53      2.36    0.95    1.00
  YS02001649YS02001757 CONDUIT   2032.95     0  01:53      2.60    1.23    1.00
  YS02001652YS02001649 CONDUIT   1143.97     0  02:01      1.46    0.57    1.00
  YS02001655YS02001652 CONDUIT   1143.48     0  02:01      1.46    0.56    1.00
  YS02001658YS02001655 CONDUIT   1143.36     0  02:01      1.89    0.49    1.00
  YS02001661YS02001658 CONDUIT   1142.65     0  02:01      2.32    0.45    1.00
  YS02001664YS02001661 CONDUIT   1141.84     0  02:01      2.32    0.36    0.89
  YS02001745YS02001748 CONDUIT    727.93     0  02:01      2.19    0.28    0.95
  YS02001748YS02001751 CONDUIT    728.88     0  02:01      1.71    0.37    1.00
  YS02001751YS02001754 CONDUIT    728.42     0  02:01      1.45    0.35    1.00
  YS02001754YS02001757 CONDUIT    728.82     0  02:01      0.93    0.29    1.00
  YS02001757CaochengTiaoxuchi CONDUIT   3519.81     0  01:58      4.49    1.52    1.00
  YS02001759YS02001757 CONDUIT   1470.74     0  01:59      1.87    1.05    1.00
  YS02001762YS02001759 CONDUIT    769.78     0  01:57      0.98    0.89    1.00
  YS02001765YS02001762 CONDUIT    769.51     0  01:57      0.98    0.72    1.00
  YS02001767YS02001765 CONDUIT    768.91     0  01:57      0.98    0.97    1.00
  YS02001770YS02001767 CONDUIT    769.58     0  01:57      0.98    3.05    1.00
  YS02001774YS02001770 CONDUIT    848.95     0  02:03      1.08    0.54    1.00
  YS02001779YS02001774 CONDUIT    848.98     0  02:03      1.08    0.43    1.00
  YS02001783YS02001784 CONDUIT   1170.55     0  01:59      2.33    1.61    1.00
  YS02001784YS02001785 CONDUIT   1172.53     0  01:59      2.33    2.73    1.00
  YS02001786YS02001788 CONDUIT   1173.12     0  01:59      2.50    2.26    0.89
  YS02001788YS02001790 CONDUIT   1176.90     0  01:58      2.71    0.87    0.84
  YS02001790YS02001791 CONDUIT   1284.71     0  01:58      3.41    1.40    0.70
  YS02001791YS02001793 CONDUIT   1240.28     0  02:03      6.77    0.53    0.44
  YS02001793JiankangQianchi CONDUIT   1243.86     0  02:03      2.50    0.10    0.64
  YS02001882YS02001884 CONDUIT     29.56     0  01:51      0.15    0.03    1.00
  YS02001884YS02001887 CONDUIT     65.09     0  01:51      0.11    0.09    1.00
  YS02001887YS02001890 CONDUIT   1074.12     0  02:01      1.37    1.84    1.00
  YS02001890YS02001895 CONDUIT    517.81     0  02:08      0.66    0.24    1.00
  YS02001895YS02001898 CONDUIT    518.13     0  02:08      0.66    0.90    1.00
  YS02001898YS02001901 CONDUIT    518.37     0  02:08      0.66    0.33    1.00
  YS02001901YS02001904 CONDUIT    518.03     0  02:08      0.66    0.80    1.00
  YS02001904YS02001907 CONDUIT    517.91     0  02:08      0.66    0.18    1.00
  YS02001907YS02006553 CONDUIT    796.62     0  02:22      0.89    0.94    1.00
  YS02001910YS02001907 CONDUIT   1861.82     0  02:03      2.37    1.05    1.00
  YS02001915YS02001910 CONDUIT   1861.51     0  02:03      2.37    0.92    1.00
  YS02001918YS02001915 CONDUIT    618.24     0  02:03      0.79    0.34    1.00
  YS02001920YS02001918 CONDUIT    618.07     0  02:03      0.79    0.60    1.00
  YS02001923YS02001920 CONDUIT    614.71     0  02:03      0.78    0.28    1.00
  YS02001926YS02001923 CONDUIT    612.99     0  02:03      0.95    0.88    1.00
  YS02001929YS02001926 CONDUIT    612.04     0  02:03      1.11    0.29    1.00
  YS02006553YS02006556 CONDUIT    796.90     0  02:22      1.01    0.68    1.00
  YS02006556YS02006558 CONDUIT    797.80     0  02:22      1.02    0.63    1.00
  YS02006558YS02006561 CONDUIT   1170.82     0  01:59      4.14    2.59    1.00
  YS02006561YS02001783 CONDUIT   1170.27     0  01:59      2.33    0.61    1.00
  YS02163301YS02001633 CONDUIT    931.12     0  01:53      1.19    0.88    1.00
  YS02163601YS02164001 CONDUIT   1385.58     0  01:53      1.76    1.23    1.00
  YS02164001YS02001641 CONDUIT   1383.76     0  01:53      1.76    1.89    1.00
  CC-R1                PUMP       683.00     0  00:00              1.00
  CC-R2                PUMP       683.00     0  00:00              1.00
  CC-S1                PUMP       200.00     0  00:00              1.00
  CC-S2                PUMP       200.00     0  00:00              1.00
  JK-R1                PUMP      1000.00     0  00:00              1.00
  JK-R2                PUMP      1000.00     0  00:00              1.00
  JK-S                 PUMP       300.00     0  00:00              1.00
  
  
  ***************************
  Flow Classification Summary
  ***************************
  
  -------------------------------------------------------------------------------------
                      Adjusted    ---------- Fraction of Time in Flow Class ---------- 
                       /Actual         Up    Down  Sub   Sup   Up    Down  Norm  Inlet 
  Conduit               Length    Dry  Dry   Dry   Crit  Crit  Crit  Crit  Ltd   Ctrl  
  -------------------------------------------------------------------------------------
  1                       1.00   0.00  0.00  0.00  0.00  1.00  0.00  0.00  0.34  0.00
  WS02003060WS02003069    1.00   0.00  0.00  0.00  0.97  0.03  0.00  0.00  0.73  0.00
  WS02003066WSF200        1.00   0.06  0.00  0.00  0.00  0.94  0.00  0.00  0.81  0.00
  WS02003067WS02003066    1.00   0.06  0.00  0.00  0.94  0.00  0.00  0.00  0.00  0.00
  WS02003069WS02003072    1.00   0.00  0.00  0.00  0.99  0.01  0.00  0.00  0.76  0.00
  WS02003072WS02003073    1.00   0.00  0.00  0.00  0.00  0.00  0.00  1.00  0.00  0.00
  WS02004401WS02004402    1.00   0.02  0.00  0.00  0.98  0.00  0.00  0.00  0.00  0.00
  WS02004402WS02004403    1.00   0.02  0.00  0.00  0.97  0.00  0.00  0.00  0.00  0.00
  WS02004403WS02004404    1.00   0.00  0.03  0.00  0.97  0.00  0.00  0.00  0.00  0.00
  WS02004404WS02004405    1.00   0.00  0.00  0.00  1.00  0.00  0.00  0.00  0.01  0.00
  WS02004405WS02004406    1.00   0.00  0.00  0.00  1.00  0.00  0.00  0.00  0.00  0.00
  WS02004406WS02004407    1.00   0.00  0.04  0.00  0.95  0.00  0.00  0.00  0.00  0.00
  WS02004407WS02004409    1.00   0.05  0.00  0.00  0.94  0.01  0.00  0.00  0.95  0.00
  WS02004409WS02004410    1.00   0.05  0.00  0.00  0.95  0.00  0.00  0.00  0.00  0.00
  WS02004410WS02004411    1.00   0.05  0.00  0.00  0.95  0.00  0.00  0.00  0.00  0.00
  WS02004411WS02004412    1.00   0.05  0.00  0.00  0.95  0.00  0.00  0.00  0.00  0.00
  WS02004412WS02004413    1.00   0.05  0.00  0.00  0.95  0.00  0.00  0.00  0.00  0.00
  WS02004413WS02003067    1.00   0.05  0.01  0.00  0.00  0.00  0.94  0.00  0.00  0.00
  WS02006109WS02006110    1.00   0.00  0.01  0.00  0.98  0.00  0.01  0.00  0.00  0.00
  WS02006110WS02006113    1.00   0.01  0.01  0.00  0.98  0.00  0.00  0.00  0.00  0.00
  WS02006111WS02006112    1.00   0.02  0.00  0.00  0.98  0.00  0.00  0.00  0.98  0.00
  WS02006112WS02006115    1.00   0.02  0.00  0.00  0.97  0.00  0.00  0.00  0.00  0.00
  WS02006113WS02006111    1.00   0.02  0.00  0.00  0.00  0.98  0.00  0.00  0.12  0.00
  WS02006115WS02006116    1.00   0.02  0.00  0.00  0.97  0.00  0.00  0.01  0.00  0.00
  WS02006116WS02004401    1.00   0.02  0.00  0.00  0.98  0.00  0.00  0.00  0.00  0.00
  WS02006228WS02006109    1.00   0.00  0.00  0.00  1.00  0.00  0.00  0.00  0.00  0.00
  WS02006229WS02006228    1.00   0.00  0.00  0.00  0.99  0.00  0.00  0.01  0.00  0.00
  WS02006230WS02006229    1.00   0.00  0.00  0.00  0.99  0.00  0.00  0.01  0.03  0.00
  WS02006231WS02006230    1.00   0.00  0.00  0.00  0.24  0.00  0.75  0.00  0.00  0.00
  WS02006232WS02006231    1.00   0.00  0.00  0.00  0.99  0.00  0.01  0.00  0.00  0.00
  WS02006234WS02006232    1.00   0.00  0.00  0.00  1.00  0.00  0.00  0.00  0.03  0.00
  WS02006235WS02006234    1.00   0.00  0.00  0.00  0.94  0.00  0.06  0.00  0.00  0.00
  WS02006238WS02006235    1.00   0.00  0.00  0.00  1.00  0.00  0.00  0.00  0.00  0.00
  WS02006239WS02006238    1.00   0.00  0.00  0.00  1.00  0.00  0.00  0.00  0.15  0.00
  WS02006240WS02006239    1.00   0.00  0.00  0.00  0.69  0.00  0.00  0.30  0.04  0.00
  WS02006242WS02006240    1.00   0.00  0.00  0.00  0.99  0.00  0.01  0.00  0.00  0.00
  WS02006243WS02006242    1.00   0.00  0.00  0.00  0.99  0.00  0.00  0.01  0.60  0.00
  WS02006245WS02006243    1.00   0.00  0.00  0.00  0.77  0.00  0.00  0.23  0.01  0.00
  WS02006247WS02006245    1.00   0.00  0.00  0.00  0.97  0.00  0.00  0.03  0.00  0.00
  WS02006248WS02006247    1.00   0.00  0.00  0.00  0.98  0.00  0.00  0.02  0.51  0.00
  WS02006249WS02006248    1.00   0.00  0.00  0.00  0.44  0.00  0.56  0.00  0.00  0.00
  WS02006251WS02006249    1.00   0.00  0.00  0.00  0.99  0.01  0.00  0.00  0.57  0.00
  WS02006252WS02006251    1.00   0.00  0.50  0.00  0.13  0.00  0.37  0.00  0.00  0.00
  WS02006256WS02006235    1.00   0.00  0.00  0.00  0.98  0.02  0.00  0.00  0.01  0.00
  WSF200WS02003060        1.00   0.00  0.06  0.00  0.41  0.52  0.00  0.00  0.65  0.00
  YS02001580YS02001583    1.00   0.23  0.56  0.00  0.22  0.00  0.00  0.00  0.65  0.00
  YS02001583YS02001586    1.00   0.41  0.31  0.00  0.27  0.00  0.00  0.00  0.65  0.00
  YS02001586YS02001590    1.00   0.13  0.00  0.00  0.44  0.04  0.00  0.39  0.35  0.00
  YS02001590YS02001593    1.00   0.13  0.01  0.00  0.14  0.00  0.72  0.00  0.00  0.00
  YS02001593YS02001596    1.00   0.13  0.00  0.00  0.16  0.01  0.00  0.70  0.02  0.00
  YS02001596YS02001600    1.00   0.13  0.00  0.00  0.21  0.01  0.00  0.64  0.04  0.00
  YS02001600YS02001601    1.00   0.13  0.01  0.00  0.86  0.00  0.00  0.00  0.59  0.00
  YS02001601YS02001602    1.00   0.13  0.01  0.00  0.87  0.00  0.00  0.00  0.00  0.00
  YS02001602YS02001605    1.00   0.13  0.00  0.00  0.87  0.00  0.00  0.00  0.00  0.00
  YS02001605YS02001607    1.00   0.14  0.00  0.00  0.86  0.00  0.00  0.00  0.00  0.00
  YS02001607YS02001610    1.00   0.13  0.01  0.00  0.86  0.00  0.00  0.00  0.01  0.00
  YS02001610YS02001613    1.00   0.13  0.00  0.00  0.87  0.00  0.00  0.00  0.00  0.00
  YS02001613YS02001616    1.00   0.13  0.00  0.00  0.87  0.00  0.00  0.00  0.00  0.00
  YS02001616YS02001619    1.00   0.13  0.00  0.00  0.87  0.00  0.00  0.00  0.00  0.00
  YS02001619YS02001622    1.00   0.13  0.00  0.00  0.87  0.00  0.00  0.00  0.28  0.00
  YS02001622YS02001625    1.00   0.13  0.00  0.00  0.87  0.00  0.00  0.00  0.04  0.00
  YS02001625YS02001629    1.00   0.13  0.04  0.00  0.18  0.00  0.64  0.00  0.00  0.00
  YS02001629YS02163301    1.00   0.15  0.01  0.00  0.84  0.00  0.00  0.00  0.00  0.00
  YS02001633YS02163601    1.00   0.00  0.01  0.00  0.99  0.00  0.00  0.00  0.15  0.00
  YS02001641YS02001644    1.00   0.00  0.01  0.00  0.99  0.00  0.00  0.00  0.00  0.00
  YS02001644YS02001647    1.00   0.00  0.17  0.00  0.83  0.00  0.00  0.00  0.00  0.00
  YS02001647YS02001649    1.00   0.00  0.16  0.00  0.57  0.26  0.00  0.00  0.56  0.00
  YS02001649YS02001757    1.00   0.00  0.00  0.00  0.71  0.29  0.00  0.00  0.43  0.00
  YS02001652YS02001649    1.00   0.00  0.00  0.00  0.97  0.03  0.00  0.00  0.72  0.00
  YS02001655YS02001652    1.00   0.00  0.00  0.00  0.21  0.01  0.00  0.78  0.04  0.00
  YS02001658YS02001655    1.00   0.00  0.14  0.00  0.69  0.17  0.00  0.00  0.65  0.00
  YS02001661YS02001658    1.00   0.14  0.00  0.00  0.52  0.34  0.00  0.00  0.67  0.00
  YS02001664YS02001661    1.00   0.13  0.00  0.00  0.77  0.11  0.00  0.00  0.84  0.00
  YS02001745YS02001748    1.00   0.00  0.00  0.00  0.12  0.01  0.00  0.87  0.05  0.00
  YS02001748YS02001751    1.00   0.00  0.00  0.00  0.85  0.15  0.00  0.00  0.75  0.00
  YS02001751YS02001754    1.00   0.00  0.00  0.00  0.19  0.00  0.00  0.81  0.03  0.00
  YS02001754YS02001757    1.00   0.00  0.00  0.00  1.00  0.00  0.00  0.00  0.80  0.00
  YS02001757CaochengTiaoxuchi    1.00   0.00  0.00  0.00  0.95  0.05  0.00  0.00  0.76  0.00
  YS02001759YS02001757    1.00   0.00  0.00  0.00  0.99  0.01  0.00  0.00  0.60  0.00
  YS02001762YS02001759    1.00   0.00  0.00  0.00  1.00  0.00  0.00  0.00  0.04  0.00
  YS02001765YS02001762    1.00   0.00  0.00  0.00  1.00  0.00  0.00  0.00  0.70  0.00
  YS02001767YS02001765    1.00   0.00  0.00  0.00  1.00  0.00  0.00  0.00  0.00  0.00
  YS02001770YS02001767    1.00   0.00  0.00  0.00  1.00  0.00  0.00  0.00  0.00  0.00
  YS02001774YS02001770    1.00   0.00  0.13  0.00  0.70  0.00  0.16  0.00  0.03  0.00
  YS02001779YS02001774    1.00   0.00  0.00  0.00  1.00  0.00  0.00  0.00  0.75  0.00
  YS02001783YS02001784    1.00   0.00  0.17  0.00  0.83  0.00  0.00  0.00  0.55  0.00
  YS02001784YS02001785    1.00   0.00  0.00  0.00  1.00  0.00  0.00  0.00  0.16  0.00
  YS02001786YS02001788    1.00   0.00  0.00  0.00  0.80  0.20  0.00  0.00  0.00  0.00
  YS02001788YS02001790    1.00   0.00  0.00  0.00  0.21  0.79  0.00  0.00  0.79  0.00
  YS02001790YS02001791    1.00   0.00  0.00  0.00  0.01  0.99  0.00  0.00  0.16  0.00
  YS02001791YS02001793    1.00   0.00  0.00  0.00  0.00  1.00  0.00  0.00  0.01  0.00
  YS02001793JiankangQianchi    1.00   0.00  0.00  0.00  0.94  0.05  0.00  0.00  0.99  0.00
  YS02001882YS02001884    1.00   0.15  0.01  0.00  0.84  0.00  0.00  0.00  0.00  0.00
  YS02001884YS02001887    1.00   0.06  0.05  0.00  0.89  0.00  0.00  0.00  0.00  0.00
  YS02001887YS02001890    1.00   0.00  0.00  0.00  0.97  0.00  0.03  0.00  0.00  0.00
  YS02001890YS02001895    1.00   0.00  0.16  0.00  0.84  0.00  0.00  0.00  0.00  0.00
  YS02001895YS02001898    1.00   0.16  0.00  0.00  0.82  0.00  0.02  0.00  0.00  0.00
  YS02001898YS02001901    1.00   0.16  0.00  0.00  0.84  0.00  0.00  0.00  0.01  0.00
  YS02001901YS02001904    1.00   0.16  0.00  0.00  0.84  0.00  0.00  0.00  0.00  0.00
  YS02001904YS02001907    1.00   0.00  0.16  0.00  0.84  0.00  0.00  0.00  0.00  0.00
  YS02001907YS02006553    1.00   0.00  0.02  0.00  0.98  0.00  0.00  0.00  0.00  0.00
  YS02001910YS02001907    1.00   0.00  0.00  0.00  0.97  0.00  0.00  0.03  0.12  0.00
  YS02001915YS02001910    1.00   0.00  0.00  0.00  0.97  0.03  0.00  0.00  0.14  0.00
  YS02001918YS02001915    1.00   0.00  0.01  0.00  0.98  0.02  0.00  0.00  0.73  0.00
  YS02001920YS02001918    1.00   0.00  0.01  0.00  0.99  0.00  0.00  0.00  0.00  0.00
  YS02001923YS02001920    1.00   0.00  0.00  0.00  1.00  0.00  0.00  0.00  0.91  0.00
  YS02001926YS02001923    1.00   0.00  0.07  0.00  0.08  0.00  0.85  0.00  0.00  0.00
  YS02001929YS02001926    1.00   0.00  0.13  0.00  0.87  0.00  0.00  0.00  0.80  0.00
  YS02006553YS02006556    1.00   0.01  0.00  0.00  0.99  0.00  0.00  0.00  0.03  0.00
  YS02006556YS02006558    1.00   0.00  0.00  0.00  1.00  0.00  0.00  0.00  0.00  0.00
  YS02006558YS02006561    1.00   0.17  0.00  0.00  0.07  0.76  0.00  0.00  0.18  0.00
  YS02006561YS02001783    1.00   0.17  0.00  0.00  0.11  0.72  0.00  0.00  0.67  0.00
  YS02163301YS02001633    1.00   0.00  0.15  0.00  0.85  0.00  0.00  0.00  0.00  0.00
  YS02163601YS02164001    1.00   0.00  0.08  0.00  0.92  0.00  0.00  0.00  0.00  0.00
  YS02164001YS02001641    1.00   0.01  0.07  0.00  0.92  0.00  0.00  0.00  0.05  0.00
  
  
  *************************
  Conduit Surcharge Summary
  *************************
  
  ----------------------------------------------------------------------------
                                                           Hours        Hours 
                         --------- Hours Full --------   Above Full   Capacity
  Conduit                Both Ends  Upstream  Dnstream   Normal Flow   Limited
  ----------------------------------------------------------------------------
  WS02003072WS02003073        0.01      0.01      0.01      1.17         0.01
  WS02004403WS02004404        0.01      0.01      0.04      0.01         0.01
  WS02004404WS02004405        0.01      0.04      0.01      2.85         0.01
  WS02004405WS02004406        0.01      0.01      0.01      0.80         0.01
  WS02006109WS02006110        0.91      0.91      1.77      0.98         0.01
  WS02006110WS02006113        0.01      0.01      1.74      0.01         0.01
  WS02006111WS02006112        0.01      0.01      2.10      0.01         0.01
  WS02006112WS02006115        0.01      0.01      0.95      0.01         0.01
  WS02006228WS02006109        1.70      1.77      1.70      2.31         1.70
  WS02006229WS02006228        1.69      1.71      1.69      2.09         1.69
  WS02006230WS02006229        1.86      2.04      1.86      3.65         1.86
  WS02006231WS02006230        0.92      0.92      1.02      3.06         0.01
  WS02006232WS02006231        0.99      0.99      1.77      1.06         0.01
  WS02006234WS02006232        1.67      1.67      1.77      1.03         1.03
  WS02006235WS02006234        1.20      1.21      1.69      2.86         0.01
  WS02006238WS02006235        1.71      1.71      1.76      0.01         0.01
  WS02006239WS02006238        1.72      1.74      1.73      1.86         1.49
  WS02006240WS02006239        1.68      1.71      1.68      1.85         1.37
  WS02006242WS02006240        1.69      1.69      1.79      2.15         0.01
  WS02006243WS02006242        1.68      1.68      1.74      0.01         0.02
  WS02006245WS02006243        1.67      1.67      1.68      0.92         0.90
  WS02006247WS02006245        1.66      1.67      1.66      2.51         1.66
  WS02006248WS02006247        1.65      1.65      1.67      0.01         0.02
  WS02006249WS02006248        1.64      1.65      1.65      2.47         0.01
  WS02006251WS02006249        1.64      1.64      1.65      1.97         1.59
  WS02006252WS02006251        2.05      2.05      2.08      2.05         0.01
  WS02006256WS02006235        2.89      2.95      6.73      1.50         0.01
  YS02001580YS02001583        0.80      0.80      0.84      0.01         0.01
  YS02001583YS02001586        0.80      0.80      0.93      0.01         0.01
  YS02001586YS02001590        0.94      0.94      1.01      0.01         0.01
  YS02001590YS02001593        1.01      1.01      1.03      1.06         0.01
  YS02001593YS02001596        1.02      1.02      1.13      0.01         0.01
  YS02001596YS02001600        1.19      1.19      1.30      0.01         0.01
  YS02001600YS02001601        1.36      1.36      1.59      0.01         0.01
  YS02001601YS02001602        1.50      1.50      1.62      1.30         0.01
  YS02001602YS02001605        1.46      1.46      1.50      2.38         0.01
  YS02001605YS02001607        1.42      1.46      1.42      1.56         1.42
  YS02001607YS02001610        1.00      1.00      1.03      0.01         0.01
  YS02001610YS02001613        0.99      0.99      1.03      0.01         0.01
  YS02001613YS02001616        0.95      0.95      0.99      0.01         0.01
  YS02001616YS02001619        0.93      0.93      0.95      0.08         0.11
  YS02001619YS02001622        0.93      0.93      0.93      1.00         0.89
  YS02001622YS02001625        0.93      0.93      1.13      0.01         0.01
  YS02001625YS02001629        0.88      0.88      1.13      0.01         0.01
  YS02001629YS02163301        1.13      1.13      1.14      0.12         0.18
  YS02001633YS02163601        1.16      1.16      1.20      0.38         0.36
  YS02001641YS02001644        1.07      1.11      1.07      1.65         1.05
  YS02001644YS02001647        0.83      0.83      1.07      0.04         0.01
  YS02001647YS02001649        0.83      0.83      0.98      0.01         0.01
  YS02001649YS02001757        0.97      0.98      1.05      0.12         0.08
  YS02001652YS02001649        0.78      0.78      0.98      0.01         0.01
  YS02001655YS02001652        0.55      0.55      0.75      0.01         0.01
  YS02001658YS02001655        0.31      0.31      0.55      0.01         0.01
  YS02001661YS02001658        0.11      0.11      0.31      0.01         0.01
  YS02001664YS02001661        0.01      0.01      0.17      0.01         0.01
  YS02001745YS02001748        0.01      0.01      0.25      0.01         0.01
  YS02001748YS02001751        0.30      0.30      0.42      0.01         0.01
  YS02001751YS02001754        0.42      0.42      0.65      0.01         0.01
  YS02001754YS02001757        0.70      0.70      1.05      0.01         0.01
  YS02001757CaochengTiaoxuchi        0.96      1.05      1.49      0.49         0.35
  YS02001759YS02001757        0.94      0.94      1.05      0.09         0.09
  YS02001762YS02001759        0.91      0.91      0.94      0.01         0.02
  YS02001765YS02001762        0.86      0.86      0.91      0.01         0.01
  YS02001767YS02001765        0.82      0.82      0.86      0.01         0.02
  YS02001770YS02001767        0.81      0.81      0.82      0.67         0.58
  YS02001774YS02001770        0.79      0.79      0.88      0.01         0.01
  YS02001779YS02001774        0.64      0.64      0.88      0.01         0.01
  YS02001783YS02001784        0.65      0.67      0.65      0.84         0.65
  YS02001784YS02001785        0.53      0.65      0.53      1.10         0.53
  YS02001786YS02001788        0.01      0.53      0.01      0.95         0.01
  YS02001790YS02001791        0.01      0.01      0.01      0.63         0.01
  YS02001793JiankangQianchi        0.01      0.01      6.69      0.01         0.01
  YS02001882YS02001884        0.61      0.61      0.62      0.01         0.01
  YS02001884YS02001887        0.65      0.65      0.66      0.01         0.01
  YS02001887YS02001890        0.68      0.68      0.69      0.19         0.01
  YS02001890YS02001895        0.60      0.60      0.71      0.01         0.01
  YS02001895YS02001898        0.59      0.59      0.60      0.01         0.01
  YS02001898YS02001901        0.60      0.60      0.65      0.01         0.01
  YS02001901YS02001904        0.64      0.64      0.65      0.01         0.01
  YS02001904YS02001907        0.64      0.64      0.94      0.01         0.01
  YS02001907YS02006553        1.12      1.12      1.19      0.01         0.01
  YS02001910YS02001907        0.71      0.71      0.91      0.06         0.06
  YS02001915YS02001910        0.61      0.61      0.71      0.01         0.01
  YS02001918YS02001915        0.52      0.52      0.61      0.01         0.01
  YS02001920YS02001918        0.52      0.52      0.53      0.01         0.01
  YS02001923YS02001920        0.47      0.47      0.53      0.01         0.01
  YS02001926YS02001923        0.21      0.21      0.23      0.01         0.01
  YS02001929YS02001926        0.08      0.08      0.23      0.01         0.01
  YS02006553YS02006556        0.81      0.81      0.94      0.01         0.01
  YS02006556YS02006558        0.87      0.87      0.95      0.01         0.01
  YS02006558YS02006561        0.55      0.80      0.55      1.05         0.55
  YS02006561YS02001783        0.48      0.48      0.67      0.01         0.01
  YS02163301YS02001633        1.14      1.14      1.18      0.01         0.01
  YS02163601YS02164001        1.11      1.11      1.20      0.09         0.01
  YS02164001YS02001641        1.10      1.11      1.11      0.79         0.75
  
  
  ***************
  Pumping Summary
  ***************
  
  ---------------------------------------------------------------------------------------------------------
                                                  Min       Avg       Max     Total     Power    % Time Off
                        Percent   Number of      Flow      Flow      Flow    Volume     Usage    Pump Curve
  Pump                 Utilized   Start-Ups       LPS       LPS       LPS  10^6 ltr     Kw-hr    Low   High
  ---------------------------------------------------------------------------------------------------------
  CC-R1                   27.05          21      0.00    683.00    683.00     5.322     97.28    0.0   34.2
  CC-R2                   21.71          28      0.00    683.00    683.00     4.271     79.17    0.0   27.7
  CC-S1                   29.05          18      0.00    200.00    200.00     1.674      9.74    0.0    0.0
  CC-S2                   30.09          23      0.00    200.00    200.00     1.733     10.20    0.0    0.0
  JK-R1                    9.17          13      0.00   1000.00   1000.00     2.640     24.06    0.0    0.0
  JK-R2                    1.82          13      0.00   1000.00   1000.00     0.525      3.84    0.0    0.0
  JK-S                    18.19          34      0.00    300.00    300.00     1.571     27.33    0.0    0.0
  

  Analysis begun on:  Mon Dec 30 10:18:38 2024
  Analysis ended on:  Mon Dec 30 10:18:40 2024
  Total elapsed time: 00:00:02