
  EPA STORM WATER MANAGEMENT MODEL - VERSION 5.2 (Build 5.2.4)
  PYSWMM TOOLKIT API - VERSION v1.0 (2023-11-27)
  ------------------------------------------------------------

  WARNING 04: minimum elevation drop used for Conduit WS02004404WS02004405
  WARNING 03: negative offset ignored for Link YS02001904YS02001907
  
  ****************
  Analysis Options
  ****************
  Flow Units ............... LPS
  Process Models:
    Rainfall/Runoff ........ YES
    RDII ................... NO
    Snowmelt ............... NO
    Groundwater ............ NO
    Flow Routing ........... YES
    Ponding Allowed ........ NO
    Water Quality .......... NO
  Infiltration Method ...... HORTON
  Flow Routing Method ...... DYNWAVE
  Surcharge Method ......... EXTRAN
  Starting Date ............ 08/28/2015 08:00:00
  Ending Date .............. 08/28/2015 16:00:00
  Antecedent Dry Days ...... 8.0
  Report Time Step ......... 00:01:00
  Wet Time Step ............ 00:01:00
  Dry Time Step ............ 00:01:00
  Routing Time Step ........ 30.00 sec
  Variable Time Step ....... YES
  Maximum Trials ........... 8
  Number of Threads ........ 4
  Head Tolerance ........... 0.001500 m
  
  
  **************************        Volume         Depth
  Runoff Quantity Continuity     hectare-m            mm
  **************************     ---------       -------
  Total Precipitation ......         7.979       240.547
  Evaporation Loss .........         0.000         0.000
  Infiltration Loss ........         0.110         3.319
  Surface Runoff ...........         7.838       236.287
  Final Storage ............         0.033         1.000
  Continuity Error (%) .....        -0.025
  
  
  **************************        Volume        Volume
  Flow Routing Continuity        hectare-m      10^6 ltr
  **************************     ---------     ---------
  Dry Weather Inflow .......         0.025         0.251
  Wet Weather Inflow .......         7.837        78.367
  Groundwater Inflow .......         0.000         0.000
  RDII Inflow ..............         0.000         0.000
  External Inflow ..........         0.083         0.834
  External Outflow .........         2.907        29.069
  Flooding Loss ............         5.113        51.127
  Evaporation Loss .........         0.000         0.000
  Exfiltration Loss ........         0.000         0.000
  Initial Stored Volume ....         0.243         2.431
  Final Stored Volume ......         0.182         1.820
  Continuity Error (%) .....        -0.163
  
  
  *************************
  Highest Continuity Errors
  *************************
  Node YS02001583 (-15.44%)
  Node YS02001884 (4.13%)
  Node WS02006256 (-1.82%)
  
  
  ***************************
  Time-Step Critical Elements
  ***************************
  Link YS02001791YS02001793 (22.64%)
  Link WS02006252WS02006251 (22.48%)
  Link WS02006238WS02006235 (20.00%)
  Link WS02004404WS02004405 (14.69%)
  Link WS02006235WS02006234 (6.95%)
  
  
  ********************************
  Highest Flow Instability Indexes
  ********************************
  Link WS02006113WS02006111 (45)
  Link YS02001602YS02001605 (35)
  Link YS02001607YS02001610 (34)
  Link YS02001605YS02001607 (34)
  Link WS02006238WS02006235 (34)
  
  
  *********************************
  Most Frequent Nonconverging Nodes
  *********************************
  Node CC-1 (23.78%)
  Node CC-2 (23.78%)
  Node JK-1 (23.78%)
  Node JK-2 (23.78%)
  Node WSC (23.78%)
  
  
  *************************
  Routing Time Step Summary
  *************************
  Minimum Time Step           :     0.01 sec
  Average Time Step           :     2.41 sec
  Maximum Time Step           :     6.43 sec
  % of Time in Steady State   :     0.00
  Average Iterations per Step :     4.25
  % of Steps Not Converging   :    23.78
  Time Step Frequencies       :
     30.000 - 13.228 sec      :     0.00 %
     13.228 -  5.833 sec      :     8.59 %
      5.833 -  2.572 sec      :    23.17 %
      2.572 -  1.134 sec      :    39.58 %
      1.134 -  0.500 sec      :    28.67 %
  
  
  ***************************
  Subcatchment Runoff Summary
  ***************************
  
  ------------------------------------------------------------------------------------------------------------------------------
                            Total      Total      Total      Total     Imperv       Perv      Total       Total     Peak  Runoff
                           Precip      Runon       Evap      Infil     Runoff     Runoff     Runoff      Runoff   Runoff   Coeff
  Subcatchment                 mm         mm         mm         mm         mm         mm         mm    10^6 ltr      LPS
  ------------------------------------------------------------------------------------------------------------------------------
  sub60                    240.55       0.00       0.00       1.96     210.54      26.91     237.45        3.12   733.01   0.987
  sub61                    240.55       0.00       0.00       2.86     198.59      38.05     236.63        4.34  1022.21   0.984
  sub62                    240.55       0.00       0.00       1.31     220.06      17.94     238.01        6.52  1528.48   0.989
  sub63                    240.55       0.00       0.00       5.31     169.87      64.46     234.33        5.32  1254.01   0.974
  sub64                    240.55       0.00       0.00       2.68     203.29      33.41     236.70        5.69  1334.44   0.984
  sub65                    240.55       0.00       0.00       2.32     208.05      28.96     237.01        6.52  1529.23   0.985
  sub66                    240.55       0.00       0.00       6.59     169.73      63.17     232.90       10.86  2445.99   0.968
  sub67                    240.55       0.00       0.00       1.24     220.14      18.01     238.15        4.43  1039.45   0.990
  sub68                    240.55       0.00       0.00       2.37     205.73      31.31     237.05        6.52  1533.32   0.985
  sub69                    240.55       0.00       0.00       2.18     204.38      33.91     238.29        8.82  2053.47   0.991
  sub70                    240.55       0.00       0.00       7.26     158.60      74.53     233.14        6.74  1452.71   0.969
  sub71                    240.55       0.00       0.00       1.35     220.01      17.90     237.91        6.22  1455.90   0.989
  sub72                    240.55       0.00       0.00       1.20     222.33      15.64     237.96        3.27   762.42   0.989
  
  
  ******************
  Node Depth Summary
  ******************
  
  ---------------------------------------------------------------------------------
                                 Average  Maximum  Maximum  Time of Max    Reported
                                   Depth    Depth      HGL   Occurrence   Max Depth
  Node                 Type       Meters   Meters   Meters  days hr:min      Meters
  ---------------------------------------------------------------------------------
  WS02003060           JUNCTION     0.25     0.38     5.32     0  03:07        0.38
  WS02003066           JUNCTION     0.20     0.30     5.85     0  03:06        0.30
  WS02003067           JUNCTION     0.52     0.70     6.02     0  03:06        0.70
  WS02003069           JUNCTION     0.28     0.43     5.02     0  03:08        0.43
  WS02003072           JUNCTION     0.34     0.50     4.87     0  03:09        0.50
  WS02003073           JUNCTION     0.20     0.30     4.36     0  03:09        0.30
  WS02004401           JUNCTION     0.62     0.88     6.88     0  01:57        0.88
  WS02004402           JUNCTION     0.65     0.91     6.87     0  01:57        0.90
  WS02004403           JUNCTION     0.68     0.92     6.85     0  03:02        0.92
  WS02004404           JUNCTION     0.75     1.06     6.91     0  01:57        1.05
  WS02004405           JUNCTION     0.74     0.97     6.82     0  03:04        0.97
  WS02004406           JUNCTION     0.75     0.96     6.79     0  02:11        0.96
  WS02004407           JUNCTION     0.19     0.30     6.61     0  03:05        0.30
  WS02004409           JUNCTION     0.42     0.67     6.44     0  03:06        0.67
  WS02004410           JUNCTION     0.44     0.68     6.40     0  01:57        0.68
  WS02004411           JUNCTION     0.46     0.69     6.37     0  03:07        0.69
  WS02004412           JUNCTION     0.48     0.70     6.34     0  03:07        0.70
  WS02004413           JUNCTION     0.64     0.86     6.33     0  03:07        0.86
  WS02006109           JUNCTION     0.68     1.13     7.75     0  02:41        1.07
  WS02006110           JUNCTION     0.68     1.14     7.73     0  02:41        1.04
  WS02006111           JUNCTION     0.19     0.29     6.99     0  01:30        0.29
  WS02006112           JUNCTION     0.78     1.09     6.97     0  02:24        1.08
  WS02006113           JUNCTION     0.29     0.46     7.35     0  02:07        0.46
  WS02006115           JUNCTION     0.51     0.78     6.92     0  03:05        0.78
  WS02006116           JUNCTION     0.59     0.86     6.90     0  01:56        0.86
  WS02006228           JUNCTION     0.68     1.21     7.86     0  02:24        1.10
  WS02006229           JUNCTION     0.66     1.24     7.94     0  02:24        1.14
  WS02006230           JUNCTION     0.67     1.47     8.22     0  02:24        1.18
  WS02006231           JUNCTION     0.47     1.26     8.39     0  01:30        0.93
  WS02006232           JUNCTION     0.61     1.37     8.41     0  01:30        1.14
  WS02006234           JUNCTION     0.55     1.55     8.71     0  01:30        1.35
  WS02006235           JUNCTION     0.59     1.53     8.70     0  02:24        1.53
  WS02006238           JUNCTION     0.62     1.59     8.73     0  02:24        1.59
  WS02006239           JUNCTION     0.59     1.54     8.75     0  02:24        1.54
  WS02006240           JUNCTION     0.56     1.44     8.74     0  01:35        1.44
  WS02006242           JUNCTION     0.63     1.48     8.75     0  01:35        1.39
  WS02006243           JUNCTION     0.55     1.33     8.75     0  01:35        1.19
  WS02006245           JUNCTION     0.55     1.25     8.73     0  01:35        1.16
  WS02006247           JUNCTION     0.57     1.22     8.72     0  01:30        1.17
  WS02006248           JUNCTION     0.54     1.10     8.69     0  01:30        1.10
  WS02006249           JUNCTION     0.57     1.09     8.69     0  01:20        1.09
  WS02006251           JUNCTION     0.57     1.36     9.03     0  01:20        1.16
  WS02006252           JUNCTION     0.38     1.50     9.74     0  00:00        0.78
  WS02006256           JUNCTION     1.17     2.35     9.28     0  00:00        2.35
  WSF200               JUNCTION     0.18     0.29     5.53     0  03:06        0.29
  YS02001580           JUNCTION     0.30     1.05     9.59     0  01:05        1.05
  YS02001583           JUNCTION     0.34     1.14     9.64     0  01:05        0.85
  YS02001586           JUNCTION     0.48     1.13     9.30     0  01:04        1.13
  YS02001590           JUNCTION     0.62     1.40     9.26     0  01:04        1.40
  YS02001593           JUNCTION     0.54     1.45     9.31     0  01:04        1.32
  YS02001596           JUNCTION     0.71     1.80     9.22     0  01:57        1.80
  YS02001600           JUNCTION     0.81     1.87     9.00     0  01:04        1.87
  YS02001601           JUNCTION     1.00     2.06     8.90     0  01:04        2.06
  YS02001602           JUNCTION     0.89     1.87     8.77     0  01:06        1.87
  YS02001605           JUNCTION     0.84     1.78     8.68     0  01:06        1.78
  YS02001607           JUNCTION     0.80     1.68     8.53     0  01:06        1.68
  YS02001610           JUNCTION     0.84     1.68     8.48     0  01:06        1.68
  YS02001613           JUNCTION     0.81     1.70     8.54     0  01:06        1.70
  YS02001616           JUNCTION     0.74     1.61     8.52     0  01:06        1.61
  YS02001619           JUNCTION     0.73     1.61     8.54     0  01:06        1.61
  YS02001622           JUNCTION     0.71     1.62     8.52     0  01:06        1.62
  YS02001625           JUNCTION     0.96     1.78     8.38     0  01:05        1.78
  YS02001629           JUNCTION     0.89     1.85     8.40     0  01:06        1.85
  YS02001633           JUNCTION     0.98     2.08     8.53     0  01:05        2.08
  YS02001641           JUNCTION     0.97     2.10     8.54     0  01:06        2.10
  YS02001644           JUNCTION     0.96     1.92     8.35     0  01:06        1.92
  YS02001647           JUNCTION     0.78     1.90     8.51     0  01:06        1.83
  YS02001649           JUNCTION     0.88     2.05     8.44     0  01:06        2.05
  YS02001652           JUNCTION     0.75     2.16     8.76     0  01:06        2.07
  YS02001655           JUNCTION     0.64     2.20     9.05     0  01:06        1.70
  YS02001658           JUNCTION     0.52     2.30     9.44     0  01:07        1.48
  YS02001661           JUNCTION     0.45     2.46     9.86     0  01:07        1.30
  YS02001664           JUNCTION     0.20     1.80     9.73     0  01:08        0.80
  YS02001745           JUNCTION     0.32     2.35     9.87     0  01:07        1.01
  YS02001748           JUNCTION     0.50     2.27     9.35     0  01:07        1.38
  YS02001751           JUNCTION     0.59     2.20     9.08     0  01:07        1.57
  YS02001754           JUNCTION     0.72     2.20     8.81     0  01:06        1.85
  YS02001757           JUNCTION     0.92     2.21     8.47     0  01:06        2.17
  YS02001759           JUNCTION     0.87     2.21     8.57     0  01:06        2.12
  YS02001762           JUNCTION     0.86     2.15     8.55     0  01:06        2.14
  YS02001765           JUNCTION     0.83     2.10     8.55     0  01:06        2.10
  YS02001767           JUNCTION     0.82     2.03     8.52     0  01:06        2.03
  YS02001770           JUNCTION     0.83     1.95     8.44     0  01:06        1.95
  YS02001774           JUNCTION     0.89     2.05     8.47     0  01:06        2.00
  YS02001779           JUNCTION     0.70     1.68     8.37     0  01:07        1.68
  YS02001783           JUNCTION     0.52     1.96     8.10     0  01:06        1.27
  YS02001784           JUNCTION     0.49     1.62     7.69     0  01:06        1.14
  YS02001786           JUNCTION     0.40     1.73     7.76     0  01:06        0.87
  YS02001788           JUNCTION     0.28     0.65     6.63     0  01:06        0.62
  YS02001790           JUNCTION     0.32     0.73     6.38     0  01:31        0.72
  YS02001791           JUNCTION     0.19     0.45     5.92     0  01:06        0.44
  YS02001793           JUNCTION     0.11     0.30     5.13     0  01:36        0.29
  YS02001882           JUNCTION     0.69     1.83     8.55     0  01:05        1.67
  YS02001884           JUNCTION     0.78     1.93     8.55     0  01:05        1.87
  YS02001887           JUNCTION     0.86     2.00     8.54     0  01:05        1.85
  YS02001890           JUNCTION     0.88     1.81     8.32     0  01:05        1.81
  YS02001895           JUNCTION     0.64     1.75     8.50     0  01:05        1.75
  YS02001898           JUNCTION     0.65     1.77     8.51     0  01:05        1.65
  YS02001901           JUNCTION     0.76     1.87     8.48     0  01:05        1.87
  YS02001904           JUNCTION     0.74     1.85     8.48     0  01:05        1.67
  YS02001907           JUNCTION     1.06     1.96     8.25     0  01:05        1.96
  YS02001910           JUNCTION     0.90     2.10     8.61     0  01:05        2.01
  YS02001915           JUNCTION     0.74     2.00     8.72     0  01:05        2.00
  YS02001918           JUNCTION     0.56     1.81     8.88     0  01:06        1.72
  YS02001920           JUNCTION     0.63     2.14     9.15     0  01:06        1.81
  YS02001923           JUNCTION     0.48     2.03     9.29     0  01:06        1.59
  YS02001926           JUNCTION     0.45     1.90     9.35     0  01:06        1.43
  YS02001929           JUNCTION     0.33     1.78     9.47     0  01:07        1.78
  YS02006553           JUNCTION     1.06     2.19     8.47     0  01:57        2.19
  YS02006556           JUNCTION     1.03     2.27     8.58     0  01:06        2.01
  YS02006558           JUNCTION     1.07     2.33     8.60     0  01:06        2.06
  YS02006561           JUNCTION     0.36     1.69     8.35     0  01:06        0.90
  YS02163301           JUNCTION     0.92     2.03     8.55     0  01:05        1.98
  YS02163601           JUNCTION     1.02     2.08     8.48     0  01:05        2.05
  YS02164001           JUNCTION     0.96     2.10     8.56     0  01:06        1.95
  CC-1                 OUTFALL      0.00     0.00     0.00     0  00:00        0.00
  CC-2                 OUTFALL      0.00     0.00     0.00     0  00:00        0.00
  JK-1                 OUTFALL      0.00     0.00     0.00     0  00:00        0.00
  JK-2                 OUTFALL      0.00     0.00     0.00     0  00:00        0.00
  WSC                  OUTFALL      0.20     0.30     0.97     0  03:10        0.30
  CC-storage           STORAGE      1.20     2.30     7.80     0  02:41        2.30
  JK-storage           STORAGE      1.93     4.24     5.04     0  02:50        4.19
  
  
  *******************
  Node Inflow Summary
  *******************
  
  -------------------------------------------------------------------------------------------------
                                  Maximum  Maximum                  Lateral       Total        Flow
                                  Lateral    Total  Time of Max      Inflow      Inflow     Balance
                                   Inflow   Inflow   Occurrence      Volume      Volume       Error
  Node                 Type           LPS      LPS  days hr:min    10^6 ltr    10^6 ltr     Percent
  -------------------------------------------------------------------------------------------------
  WS02003060           JUNCTION     16.53   557.07     0  03:07       0.476        6.23       0.038
  WS02003066           JUNCTION      0.00   539.99     0  03:06           0        5.75       0.025
  WS02003067           JUNCTION      0.00   539.88     0  03:07           0        5.76       0.074
  WS02003069           JUNCTION      0.32   557.02     0  03:07     0.00922        6.23       0.066
  WS02003072           JUNCTION      0.00   556.57     0  03:08           0        6.23       0.116
  WS02003073           JUNCTION      1.82   558.30     0  03:09      0.0524        6.28       0.092
  WS02004401           JUNCTION      0.00   540.49     0  01:57           0        5.85       0.178
  WS02004402           JUNCTION      0.00   542.89     0  02:11           0        5.84       0.181
  WS02004403           JUNCTION      0.00   559.58     0  02:11           0        5.83       0.175
  WS02004404           JUNCTION      0.16   569.64     0  02:11     0.00467        5.83       0.063
  WS02004405           JUNCTION      0.04   609.92     0  01:50      0.0011        5.82       0.154
  WS02004406           JUNCTION      0.00   552.10     0  02:11           0        5.81       0.361
  WS02004407           JUNCTION      0.00   542.42     0  03:04           0        5.79       0.022
  WS02004409           JUNCTION      0.00   541.60     0  03:05           0        5.79       0.048
  WS02004410           JUNCTION      0.00   541.04     0  03:05           0        5.79       0.079
  WS02004411           JUNCTION      0.00   540.69     0  03:06           0        5.78       0.100
  WS02004412           JUNCTION      0.00   540.38     0  03:06           0        5.78       0.133
  WS02004413           JUNCTION      0.00   540.35     0  03:07           0        5.77       0.236
  WS02006109           JUNCTION      1.23   561.46     0  03:30      0.0354         5.9       0.118
  WS02006110           JUNCTION      0.00   563.19     0  03:30           0        5.89       0.120
  WS02006111           JUNCTION      0.00   561.20     0  01:33           0        5.88       0.016
  WS02006112           JUNCTION      0.00   543.99     0  03:16           0        5.88       0.303
  WS02006113           JUNCTION      0.00   570.38     0  03:31           0        5.89       0.031
  WS02006115           JUNCTION      0.00   549.78     0  03:11           0        5.86       0.116
  WS02006116           JUNCTION      0.00   541.07     0  01:58           0        5.86       0.100
  WS02006228           JUNCTION      0.00   557.25     0  03:30           0        5.87       0.041
  WS02006229           JUNCTION      0.00   558.06     0  03:30           0        5.87       0.092
  WS02006230           JUNCTION     10.28   589.03     0  03:30       0.296        5.88       0.080
  WS02006231           JUNCTION      0.00   586.10     0  03:30           0        5.58      -0.030
  WS02006232           JUNCTION      0.00   584.85     0  03:30           0        5.59       0.158
  WS02006234           JUNCTION      0.00   577.54     0  03:30           0        5.57      -0.268
  WS02006235           JUNCTION      0.00   564.62     0  03:30           0        5.67       0.250
  WS02006238           JUNCTION      0.00   428.50     0  03:56           0        4.37      -0.145
  WS02006239           JUNCTION      0.00   428.30     0  03:56           0         4.3      -0.152
  WS02006240           JUNCTION      0.00   426.96     0  03:56           0        4.26      -0.079
  WS02006242           JUNCTION      0.00   426.17     0  03:56           0        4.26       0.001
  WS02006243           JUNCTION      0.00   425.29     0  03:56           0        4.26      -0.045
  WS02006245           JUNCTION      0.00   424.08     0  03:56           0        4.27       0.367
  WS02006247           JUNCTION      0.00   423.01     0  03:56           0        4.27      -0.003
  WS02006248           JUNCTION      0.00   422.87     0  03:56           0        4.27       0.016
  WS02006249           JUNCTION      0.00   471.65     0  00:10           0        4.65       0.381
  WS02006251           JUNCTION      0.08   406.49     0  01:20     0.00222        4.65       0.033
  WS02006252           JUNCTION      0.00   400.00     0  00:00           0        4.63      -0.255
  WS02006256           JUNCTION      0.00   300.00     0  00:00           0        1.93      -1.788
  WSF200               JUNCTION      0.00   540.08     0  03:06           0        5.75       0.009
  YS02001580           JUNCTION      0.00   331.07     0  01:04           0      0.0051      -9.652
  YS02001583           JUNCTION      0.00   353.16     0  01:04           0      0.0156     -13.376
  YS02001586           JUNCTION   1452.71  1452.71     0  01:34        6.74        6.75       0.019
  YS02001590           JUNCTION      0.00   353.05     0  01:04           0         2.7      -0.050
  YS02001593           JUNCTION      0.00   366.82     0  01:04           0         2.7       0.020
  YS02001596           JUNCTION      0.00   319.01     0  01:57           0         2.7      -0.030
  YS02001600           JUNCTION      0.00   319.11     0  01:57           0        2.72       0.037
  YS02001601           JUNCTION   2053.47  2371.10     0  01:31        8.82        11.5       0.002
  YS02001602           JUNCTION      0.00   638.17     0  01:04           0        3.61       0.020
  YS02001605           JUNCTION      0.00   637.97     0  01:04           0        3.16       0.022
  YS02001607           JUNCTION      0.00   637.87     0  01:04           0        3.16       0.045
  YS02001610           JUNCTION      0.00   959.25     0  01:57           0        5.68       0.029
  YS02001613           JUNCTION      0.00   628.32     0  01:06           0        3.52       0.036
  YS02001616           JUNCTION      0.00   654.87     0  01:57           0        3.54      -0.002
  YS02001619           JUNCTION   2445.99  2445.99     0  01:33        10.9        11.9      -0.006
  YS02001622           JUNCTION      0.00  1150.68     0  01:05           0        7.98      -0.008
  YS02001625           JUNCTION      0.00  1505.50     0  01:31           0        9.83       0.063
  YS02001629           JUNCTION      0.00   817.39     0  01:05           0        4.03       0.052
  YS02001633           JUNCTION   1529.43  1529.43     0  01:31        6.53        7.99       0.038
  YS02001641           JUNCTION      0.00  1108.40     0  01:06           0        5.42       0.061
  YS02001644           JUNCTION   1334.48  2462.85     0  01:32        5.69        11.7       0.008
  YS02001647           JUNCTION      0.00  1845.50     0  01:06           0        4.71       0.010
  YS02001649           JUNCTION      0.00  2174.79     0  01:06           0        9.44      -0.000
  YS02001652           JUNCTION      0.00  1254.57     0  01:30           0        5.34      -0.101
  YS02001655           JUNCTION      0.15  1254.60     0  01:31     0.00443        5.34       0.055
  YS02001658           JUNCTION      0.00  1254.85     0  01:30           0        5.33      -0.002
  YS02001661           JUNCTION      0.00  1254.90     0  01:31           0        5.32      -0.321
  YS02001664           JUNCTION   1254.01  1254.01     0  01:31        5.32        5.32       0.028
  YS02001745           JUNCTION    733.01   745.04     0  01:07        3.12        3.12       0.072
  YS02001748           JUNCTION      0.04   935.05     0  01:07      0.0013        3.12      -0.145
  YS02001751           JUNCTION      0.01   895.71     0  01:07    0.000317        3.13       0.105
  YS02001754           JUNCTION      0.26   853.80     0  01:06     0.00749        3.15      -0.143
  YS02001757           JUNCTION      0.00  3623.46     0  01:08           0        19.4       0.036
  YS02001759           JUNCTION   1022.25  1569.63     0  01:07        4.34        7.41      -0.009
  YS02001762           JUNCTION      0.00   804.02     0  01:07           0        3.07       0.001
  YS02001765           JUNCTION      0.00   803.84     0  01:07           0        3.06       0.004
  YS02001767           JUNCTION      0.54   804.93     0  01:07      0.0154        3.06       0.006
  YS02001770           JUNCTION   1528.63  1528.63     0  01:31        6.52        6.57      -0.011
  YS02001774           JUNCTION      0.00   852.14     0  01:36           0        3.08       0.029
  YS02001779           JUNCTION      0.01   851.79     0  01:31    0.000144        3.04      -0.026
  YS02001783           JUNCTION      0.00  1165.91     0  01:16           0           9       0.004
  YS02001784           JUNCTION      1.06  1167.08     0  01:30      0.0305        9.03       0.006
  YS02001786           JUNCTION      0.06  1167.02     0  01:17     0.00162        9.04       0.008
  YS02001788           JUNCTION      0.07  1173.47     0  01:57     0.00204        9.04       0.003
  YS02001790           JUNCTION      0.15  1206.23     0  01:06     0.00446        9.04       0.039
  YS02001791           JUNCTION      0.00  1300.00     0  01:25           0        9.04      -0.060
  YS02001793           JUNCTION      0.00  1286.78     0  01:06           0        9.04       0.003
  YS02001882           JUNCTION      0.00   183.83     0  01:05           0      0.0135       6.251
  YS02001884           JUNCTION      0.00   347.37     0  01:05           0      0.0497       4.312
  YS02001887           JUNCTION   1039.90  1040.52     0  01:30        4.44        4.47       0.094
  YS02001890           JUNCTION      0.00  1041.21     0  01:31           0        4.43       0.110
  YS02001895           JUNCTION      0.00   702.86     0  01:05           0        3.16       0.125
  YS02001898           JUNCTION      0.00   642.69     0  01:05           0        3.16      -0.069
  YS02001901           JUNCTION      0.00   538.81     0  01:06           0        3.18       0.116
  YS02001904           JUNCTION      0.00   537.99     0  01:06           0        3.21       0.079
  YS02001907           JUNCTION      0.00  2880.64     0  01:31           0        13.1       0.121
  YS02001910           JUNCTION      0.00  1993.20     0  01:20           0        9.35       0.079
  YS02001915           JUNCTION   1455.92  2222.09     0  01:31        6.22        9.64       0.013
  YS02001918           JUNCTION      0.00  1103.93     0  01:06           0        3.46       0.009
  YS02001920           JUNCTION      2.87  1022.05     0  01:06      0.0827        3.43       0.016
  YS02001923           JUNCTION      0.04  1374.21     0  01:06     0.00109        3.32      -0.059
  YS02001926           JUNCTION      0.05  1567.94     0  01:06      0.0015        3.29       0.017
  YS02001929           JUNCTION    762.42   979.97     0  01:06        3.27        3.28      -0.043
  YS02006553           JUNCTION      0.00   801.75     0  03:01           0        3.75       0.308
  YS02006556           JUNCTION      0.00   801.75     0  03:01           0        3.78       0.217
  YS02006558           JUNCTION   1534.20  1534.20     0  01:31        6.55        9.67       0.035
  YS02006561           JUNCTION      0.00  1187.14     0  01:06           0           9       0.001
  YS02163301           JUNCTION      0.00   809.84     0  01:30           0        4.05       0.036
  YS02163601           JUNCTION      0.11  1113.59     0  01:06     0.00317        5.39       0.086
  YS02164001           JUNCTION      0.00  1112.29     0  01:06           0         5.4       0.048
  CC-1                 OUTFALL       0.00   683.00     0  00:00           0        7.63       0.000
  CC-2                 OUTFALL       0.00   683.00     0  00:00           0        7.92       0.000
  JK-1                 OUTFALL       0.00  1000.00     0  00:00           0         4.1       0.000
  JK-2                 OUTFALL       0.00  1000.00     0  00:00           0        3.15       0.000
  WSC                  OUTFALL       0.00   558.09     0  03:10           0        6.27       0.000
  CC-storage           STORAGE       0.00  3623.91     0  01:08           0        21.6      -0.158
  JK-storage           STORAGE       0.00  1282.12     0  01:06           0        9.19      -0.184
  
  
  **********************
  Node Surcharge Summary
  **********************
  
  Surcharging occurs when water rises above the top of the highest conduit.
  ---------------------------------------------------------------------
                                               Max. Height   Min. Depth
                                   Hours       Above Crown    Below Rim
  Node                 Type      Surcharged         Meters       Meters
  ---------------------------------------------------------------------
  WS02004404           JUNCTION        0.06          0.060        2.720
  WS02006109           JUNCTION        2.70          0.315        1.505
  WS02006110           JUNCTION        1.23          0.231        1.619
  WS02006112           JUNCTION        1.43          0.088        1.592
  WS02006228           JUNCTION        2.70          0.376        1.824
  WS02006229           JUNCTION        2.70          0.442        2.008
  WS02006230           JUNCTION        1.25          0.392        1.178
  WS02006231           JUNCTION        1.41          0.554        0.976
  WS02006232           JUNCTION        2.72          0.674        0.806
  WS02006234           JUNCTION        1.81          0.832        0.408
  WS02006235           JUNCTION        2.65          0.822        0.468
  WS02006238           JUNCTION        2.70          0.868        0.562
  WS02006239           JUNCTION        2.68          0.802        0.488
  WS02006240           JUNCTION        2.69          0.734        0.656
  WS02006242           JUNCTION        2.71          0.754        0.066
  WS02006243           JUNCTION        2.69          0.620        0.150
  WS02006245           JUNCTION        2.69          0.538        0.312
  WS02006247           JUNCTION        2.69          0.508        0.252
  WS02006248           JUNCTION        2.68          0.380        0.000
  WS02006249           JUNCTION        2.68          0.390        0.000
  WS02006251           JUNCTION        1.50          0.326        0.854
  WS02006252           JUNCTION        2.98          1.100        0.000
  WS02006256           JUNCTION        7.29          2.050        0.000
  YS02001580           JUNCTION        2.02          0.450        0.000
  YS02001583           JUNCTION        2.03          0.500        0.000
  YS02001586           JUNCTION        2.13          0.510        0.000
  YS02001590           JUNCTION        2.17          0.750        0.000
  YS02001593           JUNCTION        2.17          0.830        0.010
  YS02001596           JUNCTION        2.23          1.070        0.000
  YS02001600           JUNCTION        2.32          1.190        0.000
  YS02001601           JUNCTION        2.50          1.440        0.000
  YS02001602           JUNCTION        2.46          1.270        0.000
  YS02001605           JUNCTION        2.44          1.180        0.000
  YS02001607           JUNCTION        2.20          0.680        0.000
  YS02001610           JUNCTION        2.21          0.680        0.000
  YS02001613           JUNCTION        2.20          0.700        0.000
  YS02001616           JUNCTION        2.17          0.610        0.000
  YS02001619           JUNCTION        2.16          0.610        0.000
  YS02001622           JUNCTION        2.17          0.620        0.000
  YS02001625           JUNCTION        2.31          0.780        0.000
  YS02001629           JUNCTION        2.15          0.470        0.000
  YS02001633           JUNCTION        2.36          1.060        0.000
  YS02001641           JUNCTION        2.37          1.100        0.000
  YS02001644           JUNCTION        2.36          0.920        0.000
  YS02001647           JUNCTION        2.24          0.900        0.000
  YS02001649           JUNCTION        2.37          1.050        0.000
  YS02001652           JUNCTION        2.22          1.130        0.000
  YS02001655           JUNCTION        2.08          1.200        0.000
  YS02001658           JUNCTION        1.90          1.300        0.000
  YS02001661           JUNCTION        0.83          1.390        0.000
  YS02001664           JUNCTION        0.01          0.804        0.506
  YS02001745           JUNCTION        0.01          1.350        0.000
  YS02001748           JUNCTION        1.88          1.190        0.000
  YS02001751           JUNCTION        2.05          1.200        0.000
  YS02001754           JUNCTION        2.18          1.150        0.000
  YS02001757           JUNCTION        2.45          1.210        0.000
  YS02001759           JUNCTION        2.38          1.210        0.000
  YS02001762           JUNCTION        2.35          1.150        0.000
  YS02001765           JUNCTION        2.32          1.100        0.000
  YS02001767           JUNCTION        2.29          1.030        0.000
  YS02001770           JUNCTION        2.27          0.920        0.000
  YS02001774           JUNCTION        2.33          1.050        0.000
  YS02001779           JUNCTION        2.16          0.680        0.000
  YS02001783           JUNCTION        1.99          1.157        0.443
  YS02001784           JUNCTION        1.98          0.819        0.671
  YS02001786           JUNCTION        1.92          0.929        0.501
  YS02001882           JUNCTION        1.97          0.830        0.000
  YS02001884           JUNCTION        1.97          0.870        0.000
  YS02001887           JUNCTION        1.99          0.950        0.000
  YS02001890           JUNCTION        2.00          0.760        0.000
  YS02001895           JUNCTION        1.96          0.750        0.000
  YS02001898           JUNCTION        1.95          0.740        0.000
  YS02001901           JUNCTION        1.98          0.870        0.000
  YS02001904           JUNCTION        1.98          0.850        0.000
  YS02001907           JUNCTION        2.07          0.950        0.000
  YS02001910           JUNCTION        2.00          1.100        0.000
  YS02001915           JUNCTION        1.97          1.000        0.000
  YS02001918           JUNCTION        1.92          0.810        0.000
  YS02001920           JUNCTION        1.93          1.140        0.000
  YS02001923           JUNCTION        0.92          0.820        0.000
  YS02001926           JUNCTION        1.04          0.900        0.000
  YS02001929           JUNCTION        0.66          0.780        0.000
  YS02006553           JUNCTION        2.08          1.190        0.000
  YS02006556           JUNCTION        2.04          1.232        0.118
  YS02006558           JUNCTION        2.03          1.232        0.168
  YS02006561           JUNCTION        1.90          0.887        0.263
  YS02163301           JUNCTION        2.34          1.030        0.000
  YS02163601           JUNCTION        2.40          1.080        0.000
  YS02164001           JUNCTION        2.35          1.100        0.000
  
  
  *********************
  Node Flooding Summary
  *********************
  
  Flooding refers to all water that overflows a node, whether it ponds or not.
  --------------------------------------------------------------------------
                                                             Total   Maximum
                                 Maximum   Time of Max       Flood    Ponded
                        Hours       Rate    Occurrence      Volume     Depth
  Node                 Flooded       LPS   days hr:min    10^6 ltr    Meters
  --------------------------------------------------------------------------
  WS02006248              0.01     14.91      0  01:35       0.000     0.000
  WS02006249              1.45     92.43      0  01:20       0.354     0.000
  WS02006252              0.01    245.63      0  00:00       0.000     0.000
  WS02006256              1.78    293.19      0  00:00       0.639     0.000
  YS02001580              0.01    305.73      0  01:05       0.002     0.000
  YS02001583              0.01    278.11      0  01:05       0.001     0.000
  YS02001586              1.97   1135.19      0  01:34       4.040     0.000
  YS02001590              0.01    221.98      0  01:04       0.001     0.000
  YS02001596              0.01      0.24      0  01:57       0.000     0.000
  YS02001600              0.01     25.28      0  01:04       0.000     0.000
  YS02001601              2.07   1973.25      0  01:31       7.904     0.000
  YS02001602              2.05     65.35      0  01:57       0.451     0.000
  YS02001605              0.01      6.44      0  01:06       0.000     0.000
  YS02001607              0.01    587.17      0  01:06       0.007     0.000
  YS02001610              1.99    958.79      0  01:57       4.702     0.000
  YS02001613              0.01    421.19      0  01:06       0.001     0.000
  YS02001616              0.21    454.65      0  01:06       0.004     0.000
  YS02001619              0.80    775.47      0  01:33       1.323     0.000
  YS02001622              0.01    497.78      0  01:06       0.004     0.000
  YS02001625              2.02   1505.28      0  01:31       8.372     0.000
  YS02001629              0.89    512.48      0  01:06       0.731     0.000
  YS02001633              0.01    312.01      0  01:05       0.000     0.000
  YS02001641              0.01    455.20      0  01:06       0.000     0.000
  YS02001644              1.87   2462.52      0  01:32       7.575     0.000
  YS02001647              0.01    330.88      0  01:06       0.000     0.000
  YS02001649              0.01    617.33      0  01:06       0.002     0.000
  YS02001652              0.01    754.91      0  01:06       0.002     0.000
  YS02001655              0.01    472.96      0  01:07       0.001     0.000
  YS02001658              0.01    393.22      0  01:07       0.001     0.000
  YS02001661              0.01    349.06      0  01:07       0.000     0.000
  YS02001745              0.01    370.29      0  01:07       0.000     0.000
  YS02001748              0.01    431.07      0  01:07       0.002     0.000
  YS02001751              0.01    355.16      0  01:07       0.001     0.000
  YS02001754              0.01    546.38      0  01:07       0.001     0.000
  YS02001757              0.01    576.27      0  01:06       0.001     0.000
  YS02001759              0.01    235.60      0  01:06       0.000     0.000
  YS02001762              0.01    224.13      0  01:06       0.000     0.000
  YS02001765              0.01    274.70      0  01:06       0.001     0.000
  YS02001767              0.01    186.76      0  01:06       0.000     0.000
  YS02001770              0.53    397.67      0  01:32       0.459     0.000
  YS02001774              0.01    244.60      0  01:06       0.000     0.000
  YS02001779              1.52    851.49      0  01:31       3.020     0.000
  YS02001882              0.01     71.50      0  01:05       0.000     0.000
  YS02001884              0.01    210.67      0  01:05       0.000     0.000
  YS02001887              0.01     95.14      0  01:05       0.000     0.000
  YS02001890              1.05    524.99      0  01:29       1.263     0.000
  YS02001895              0.01    476.01      0  01:05       0.001     0.000
  YS02001898              0.01    568.73      0  01:05       0.003     0.000
  YS02001901              0.01     19.90      0  01:05       0.000     0.000
  YS02001904              0.01    110.96      0  01:05       0.000     0.000
  YS02001907              1.88   2880.18      0  01:31       9.973     0.000
  YS02001910              0.01      5.58      0  01:05       0.000     0.000
  YS02001915              0.41    229.61      0  01:31       0.236     0.000
  YS02001918              0.01    487.01      0  01:06       0.005     0.000
  YS02001920              0.01    734.10      0  01:06       0.001     0.000
  YS02001923              0.01    852.86      0  01:06       0.003     0.000
  YS02001926              0.01    855.45      0  01:06       0.002     0.000
  YS02001929              0.01    932.43      0  01:07       0.008     0.000
  YS02006553              0.01      1.06      0  01:57       0.000     0.000
  YS02163301              0.01     53.85      0  01:05       0.000     0.000
  YS02163601              0.01    334.11      0  01:05       0.001     0.000
  YS02164001              0.01    148.11      0  01:06       0.000     0.000
  CC-storage              0.27     38.33      0  02:42       0.022     0.000
  
  
  **********************
  Storage Volume Summary
  **********************
  
  ------------------------------------------------------------------------------------------------
                         Average    Avg   Evap  Exfil     Maximum    Max    Time of Max    Maximum
                          Volume   Pcnt   Pcnt   Pcnt      Volume   Pcnt     Occurrence    Outflow
  Storage Unit           1000 m³   Full   Loss   Loss     1000 m³   Full    days hr:min        LPS
  ------------------------------------------------------------------------------------------------
  CC-storage               3.356   52.4    0.0    0.0       6.410  100.0       0  02:41    1783.53
  JK-storage               0.097   33.2    0.0    0.0       0.213   73.1       0  02:50    2300.00
  
  
  ***********************
  Outfall Loading Summary
  ***********************
  
  -----------------------------------------------------------
                         Flow       Avg       Max       Total
                         Freq      Flow      Flow      Volume
  Outfall Node           Pcnt       LPS       LPS    10^6 ltr
  -----------------------------------------------------------
  CC-1                  56.64    683.00    683.00       7.635
  CC-2                  59.20    683.00    683.00       7.923
  JK-1                  18.92   1000.00   1000.00       4.096
  JK-2                  16.76   1000.00   1000.00       3.146
  WSC                   99.95    296.72    558.09       6.269
  -----------------------------------------------------------
  System                50.29   3662.72   3924.09      29.069
  
  
  ********************
  Link Flow Summary
  ********************
  
  -----------------------------------------------------------------------------
                                 Maximum  Time of Max   Maximum    Max/    Max/
                                  |Flow|   Occurrence   |Veloc|    Full    Full
  Link                 Type          LPS  days hr:min     m/sec    Flow   Depth
  -----------------------------------------------------------------------------
  1                    CONDUIT    558.09     0  03:10      2.83    0.19    0.30
  WS02003060WS02003069 CONDUIT    556.70     0  03:07      1.64    0.22    0.34
  WS02003066WSF200     CONDUIT    540.08     0  03:06      2.86    0.09    0.22
  WS02003067WS02003066 CONDUIT    539.99     0  03:06      1.21    0.17    0.42
  WS02003069WS02003072 CONDUIT    556.57     0  03:08      1.37    0.27    0.39
  WS02003072WS02003073 CONDUIT    556.48     0  03:09      1.44    1.20    0.37
  WS02004401WS02004402 CONDUIT    542.89     0  02:11      0.98    0.65    0.89
  WS02004402WS02004403 CONDUIT    559.58     0  02:11      0.97    0.80    0.91
  WS02004403WS02004404 CONDUIT    569.48     0  02:11      0.92    0.41    0.96
  WS02004404WS02004405 CONDUIT    609.89     0  01:50      1.07    5.98    0.98
  WS02004405WS02004406 CONDUIT    552.10     0  02:11      0.98    1.09    0.96
  WS02004406WS02004407 CONDUIT    542.42     0  03:04      1.04    0.24    0.63
  WS02004407WS02004409 CONDUIT    541.60     0  03:05      1.56    0.19    0.48
  WS02004409WS02004410 CONDUIT    541.04     0  03:05      1.02    0.70    0.68
  WS02004410WS02004411 CONDUIT    540.69     0  03:06      0.95    0.74    0.69
  WS02004411WS02004412 CONDUIT    540.38     0  03:06      0.93    0.77    0.70
  WS02004412WS02004413 CONDUIT    540.35     0  03:07      0.82    0.36    0.78
  WS02004413WS02003067 CONDUIT    539.88     0  03:07      1.11    0.23    0.59
  WS02006109WS02006110 CONDUIT    563.19     0  03:30      1.12    1.08    1.00
  WS02006110WS02006113 CONDUIT    570.38     0  03:31      1.38    0.52    0.79
  WS02006111WS02006112 CONDUIT    543.99     0  03:16      1.82    0.26    0.67
  WS02006112WS02006115 CONDUIT    549.78     0  03:11      0.81    0.32    0.88
  WS02006113WS02006111 CONDUIT    561.20     0  01:33      2.47    0.67    0.46
  WS02006115WS02006116 CONDUIT    541.07     0  01:58      0.99    0.69    0.79
  WS02006116WS02004401 CONDUIT    540.49     0  01:57      0.98    0.74    0.87
  WS02006228WS02006109 CONDUIT    560.23     0  03:30      1.11    2.45    1.00
  WS02006229WS02006228 CONDUIT    557.25     0  03:30      1.14    1.85    1.00
  WS02006230WS02006229 CONDUIT    558.06     0  03:30      1.45   12.42    1.00
  WS02006231WS02006230 CONDUIT    578.75     0  03:30      1.58    8.78    1.00
  WS02006232WS02006231 CONDUIT    586.10     0  03:30      1.53    1.23    1.00
  WS02006234WS02006232 CONDUIT    584.85     0  03:30      1.52    1.18    1.00
  WS02006235WS02006234 CONDUIT    577.54     0  03:30      1.50    6.09    1.00
  WS02006238WS02006235 CONDUIT    429.65     0  03:56      1.49    0.96    1.00
  WS02006239WS02006238 CONDUIT    428.50     0  03:56      1.11    1.37    1.00
  WS02006240WS02006239 CONDUIT    428.30     0  03:56      1.24    1.35    1.00
  WS02006242WS02006240 CONDUIT    426.96     0  03:56      1.13    1.70    1.00
  WS02006243WS02006242 CONDUIT    426.17     0  03:56      1.42    0.91    1.00
  WS02006245WS02006243 CONDUIT    425.29     0  03:56      1.45    1.26    1.00
  WS02006247WS02006245 CONDUIT    424.08     0  03:56      1.43    3.36    1.00
  WS02006248WS02006247 CONDUIT    423.01     0  03:56      1.44    0.92    1.00
  WS02006249WS02006248 CONDUIT    422.87     0  03:56      1.39    2.32    1.00
  WS02006251WS02006249 CONDUIT    471.65     0  00:10      1.99    1.36    1.00
  WS02006252WS02006251 CONDUIT    406.42     0  01:20     24.61    1.49    1.00
  WS02006256WS02006235 CONDUIT    289.01     0  01:09      4.23    3.06    1.00
  WSF200WS02003060     CONDUIT    540.54     0  03:07      2.07    0.12    0.28
  YS02001580YS02001583 CONDUIT    331.07     0  01:04      1.34    1.28    1.00
  YS02001583YS02001586 CONDUIT    353.16     0  01:04      1.50    0.53    1.00
  YS02001586YS02001590 CONDUIT    324.83     0  01:57      1.48    0.57    1.00
  YS02001590YS02001593 CONDUIT    331.60     0  01:57      1.17    2.08    1.00
  YS02001593YS02001596 CONDUIT    319.01     0  01:57      1.64    0.50    1.00
  YS02001596YS02001600 CONDUIT    319.11     0  01:57      1.22    0.62    1.00
  YS02001600YS02001601 CONDUIT    318.17     0  02:24      1.13    0.55    1.00
  YS02001601YS02001602 CONDUIT    638.17     0  01:04      2.26    2.31    1.00
  YS02001602YS02001605 CONDUIT    637.97     0  01:04      2.26   13.50    1.00
  YS02001605YS02001607 CONDUIT    637.87     0  01:04      2.26    3.50    1.00
  YS02001607YS02001610 CONDUIT    741.16     0  01:05      1.11    0.70    1.00
  YS02001610YS02001613 CONDUIT    628.32     0  01:06      0.94    0.72    1.00
  YS02001613YS02001616 CONDUIT    623.57     0  01:57      0.99    0.53    1.00
  YS02001616YS02001619 CONDUIT    654.87     0  01:57      1.00    1.14    1.00
  YS02001619YS02001622 CONDUIT   1150.68     0  01:05      2.38    1.70    1.00
  YS02001622YS02001625 CONDUIT   1053.72     0  01:31      1.36    0.56    1.00
  YS02001625YS02001629 CONDUIT    817.39     0  01:05      1.22    0.39    1.00
  YS02001629YS02163301 CONDUIT    810.28     0  01:31      1.03    1.00    1.00
  YS02001633YS02163601 CONDUIT   1113.48     0  01:06      1.42    1.17    1.00
  YS02001641YS02001644 CONDUIT   1107.50     0  01:06      1.41    3.58    1.00
  YS02001644YS02001647 CONDUIT   1845.50     0  01:06      2.35    1.08    1.00
  YS02001647YS02001649 CONDUIT   1850.94     0  01:06      2.36    0.98    1.00
  YS02001649YS02001757 CONDUIT   1991.30     0  01:06      2.54    1.21    1.00
  YS02001652YS02001649 CONDUIT   1254.84     0  01:31      1.80    0.62    1.00
  YS02001655YS02001652 CONDUIT   1254.57     0  01:30      2.20    0.61    1.00
  YS02001658YS02001655 CONDUIT   1254.45     0  01:31      2.38    0.53    1.00
  YS02001661YS02001658 CONDUIT   1254.85     0  01:30      2.67    0.49    1.00
  YS02001664YS02001661 CONDUIT   1254.90     0  01:31      2.67    0.39    1.00
  YS02001745YS02001748 CONDUIT    734.20     0  01:31      2.60    0.28    1.00
  YS02001748YS02001751 CONDUIT    735.35     0  01:30      2.09    0.37    1.00
  YS02001751YS02001754 CONDUIT    734.54     0  01:30      2.08    0.35    1.00
  YS02001754YS02001757 CONDUIT    735.12     0  01:30      1.50    0.30    1.00
  YS02001757CaochengTiaoxuchi CONDUIT   3623.91     0  01:08      5.22    1.57    1.00
  YS02001759YS02001757 CONDUIT   1569.39     0  01:07      2.00    1.12    1.00
  YS02001762YS02001759 CONDUIT    803.26     0  01:07      1.02    0.93    1.00
  YS02001765YS02001762 CONDUIT    804.02     0  01:07      1.02    0.75    1.00
  YS02001767YS02001765 CONDUIT    803.84     0  01:07      1.02    1.01    1.00
  YS02001770YS02001767 CONDUIT    804.40     0  01:07      1.12    3.19    1.00
  YS02001774YS02001770 CONDUIT    852.14     0  01:36      1.08    0.54    1.00
  YS02001779YS02001774 CONDUIT    851.79     0  01:31      1.08    0.43    1.00
  YS02001783YS02001784 CONDUIT   1166.02     0  01:30      2.32    1.61    1.00
  YS02001784YS02001785 CONDUIT   1166.96     0  01:17      2.32    2.72    1.00
  YS02001786YS02001788 CONDUIT   1173.40     0  01:57      2.50    2.26    0.91
  YS02001788YS02001790 CONDUIT   1206.07     0  01:06      2.72    0.89    0.85
  YS02001790YS02001791 CONDUIT   1300.00     0  01:25      3.45    1.41    0.71
  YS02001791YS02001793 CONDUIT   1286.78     0  01:06      6.83    0.55    0.45
  YS02001793JiankangQianchi CONDUIT   1282.12     0  01:06      2.57    0.10    0.65
  YS02001882YS02001884 CONDUIT    183.83     0  01:05      0.65    0.21    1.00
  YS02001884YS02001887 CONDUIT    347.37     0  01:05      0.65    0.46    1.00
  YS02001887YS02001890 CONDUIT   1041.21     0  01:31      1.33    1.78    1.00
  YS02001890YS02001895 CONDUIT    702.86     0  01:05      0.90    0.33    1.00
  YS02001895YS02001898 CONDUIT    615.70     0  01:05      0.97    1.07    1.00
  YS02001898YS02001901 CONDUIT    538.81     0  01:06      0.72    0.35    1.00
  YS02001901YS02001904 CONDUIT    537.99     0  01:06      1.07    0.83    1.00
  YS02001904YS02001907 CONDUIT    539.02     0  01:06      0.76    0.19    1.00
  YS02001907YS02006553 CONDUIT    801.75     0  03:01      0.89    0.94    1.00
  YS02001910YS02001907 CONDUIT   1993.04     0  01:31      2.54    1.12    1.00
  YS02001915YS02001910 CONDUIT   1993.20     0  01:20      2.54    0.99    1.00
  YS02001918YS02001915 CONDUIT   1103.93     0  01:06      1.41    0.61    1.00
  YS02001920YS02001918 CONDUIT   1019.18     0  01:06      1.30    0.99    1.00
  YS02001923YS02001920 CONDUIT   1023.13     0  01:06      1.40    0.46    1.00
  YS02001926YS02001923 CONDUIT   1261.06     0  01:06      1.76    1.80    1.00
  YS02001929YS02001926 CONDUIT    763.58     0  01:31      1.33    0.36    1.00
  YS02006553YS02006556 CONDUIT    801.75     0  03:01      1.02    0.69    1.00
  YS02006556YS02006558 CONDUIT    804.49     0  03:01      1.02    0.64    1.00
  YS02006558YS02006561 CONDUIT   1187.14     0  01:06      4.21    2.62    1.00
  YS02006561YS02001783 CONDUIT   1165.91     0  01:16      2.32    0.60    1.00
  YS02163301YS02001633 CONDUIT    809.84     0  01:30      1.03    0.76    1.00
  YS02163601YS02164001 CONDUIT   1112.29     0  01:06      1.42    0.99    1.00
  YS02164001YS02001641 CONDUIT   1108.40     0  01:06      1.41    1.51    1.00
  CC-R1                PUMP       683.00     0  00:00              1.00
  CC-R2                PUMP       683.00     0  00:00              1.00
  CC-S1                PUMP       200.00     0  00:00              1.00
  CC-S2                PUMP       200.00     0  00:00              1.00
  JK-R1                PUMP      1000.00     0  00:00              1.00
  JK-R2                PUMP      1000.00     0  00:00              1.00
  JK-S                 PUMP       300.00     0  00:00              1.00
  
  
  ***************************
  Flow Classification Summary
  ***************************
  
  -------------------------------------------------------------------------------------
                      Adjusted    ---------- Fraction of Time in Flow Class ---------- 
                       /Actual         Up    Down  Sub   Sup   Up    Down  Norm  Inlet 
  Conduit               Length    Dry  Dry   Dry   Crit  Crit  Crit  Crit  Ltd   Ctrl  
  -------------------------------------------------------------------------------------
  1                       1.00   0.00  0.00  0.00  0.00  1.00  0.00  0.00  0.37  0.00
  WS02003060WS02003069    1.00   0.00  0.00  0.00  0.98  0.02  0.00  0.00  0.62  0.00
  WS02003066WSF200        1.00   0.08  0.00  0.00  0.00  0.92  0.00  0.00  0.74  0.00
  WS02003067WS02003066    1.00   0.07  0.01  0.00  0.92  0.00  0.00  0.00  0.00  0.00
  WS02003069WS02003072    1.00   0.00  0.00  0.00  0.99  0.01  0.00  0.00  0.64  0.00
  WS02003072WS02003073    1.00   0.00  0.00  0.00  0.00  0.00  0.00  1.00  0.00  0.00
  WS02004401WS02004402    1.00   0.02  0.00  0.00  0.98  0.00  0.00  0.00  0.00  0.00
  WS02004402WS02004403    1.00   0.02  0.00  0.00  0.97  0.00  0.00  0.00  0.00  0.00
  WS02004403WS02004404    1.00   0.00  0.03  0.00  0.97  0.00  0.00  0.00  0.00  0.00
  WS02004404WS02004405    1.00   0.00  0.00  0.00  1.00  0.00  0.00  0.00  0.01  0.00
  WS02004405WS02004406    1.00   0.00  0.00  0.00  1.00  0.00  0.00  0.00  0.00  0.00
  WS02004406WS02004407    1.00   0.00  0.04  0.00  0.96  0.00  0.00  0.00  0.00  0.00
  WS02004407WS02004409    1.00   0.04  0.00  0.00  0.95  0.01  0.00  0.00  0.95  0.00
  WS02004409WS02004410    1.00   0.04  0.00  0.00  0.96  0.00  0.00  0.00  0.00  0.00
  WS02004410WS02004411    1.00   0.04  0.00  0.00  0.96  0.00  0.00  0.00  0.00  0.00
  WS02004411WS02004412    1.00   0.05  0.00  0.00  0.95  0.00  0.00  0.00  0.00  0.00
  WS02004412WS02004413    1.00   0.05  0.00  0.00  0.95  0.00  0.00  0.00  0.00  0.00
  WS02004413WS02003067    1.00   0.05  0.02  0.00  0.00  0.00  0.93  0.00  0.00  0.00
  WS02006109WS02006110    1.00   0.00  0.01  0.00  0.98  0.00  0.01  0.00  0.00  0.00
  WS02006110WS02006113    1.00   0.01  0.01  0.00  0.98  0.00  0.00  0.00  0.00  0.00
  WS02006111WS02006112    1.00   0.02  0.00  0.00  0.98  0.00  0.00  0.00  0.98  0.00
  WS02006112WS02006115    1.00   0.02  0.00  0.00  0.97  0.00  0.00  0.00  0.00  0.00
  WS02006113WS02006111    1.00   0.02  0.00  0.00  0.00  0.98  0.00  0.00  0.15  0.00
  WS02006115WS02006116    1.00   0.02  0.00  0.00  0.97  0.00  0.00  0.01  0.00  0.00
  WS02006116WS02004401    1.00   0.02  0.00  0.00  0.98  0.00  0.00  0.00  0.00  0.00
  WS02006228WS02006109    1.00   0.00  0.00  0.00  1.00  0.00  0.00  0.00  0.00  0.00
  WS02006229WS02006228    1.00   0.00  0.00  0.00  0.99  0.00  0.00  0.01  0.00  0.00
  WS02006230WS02006229    1.00   0.00  0.00  0.00  0.99  0.00  0.00  0.01  0.03  0.00
  WS02006231WS02006230    1.00   0.00  0.00  0.00  0.35  0.00  0.65  0.00  0.00  0.00
  WS02006232WS02006231    1.00   0.00  0.00  0.00  0.99  0.00  0.01  0.00  0.00  0.00
  WS02006234WS02006232    1.00   0.00  0.00  0.00  1.00  0.00  0.00  0.00  0.02  0.00
  WS02006235WS02006234    1.00   0.00  0.00  0.00  0.97  0.00  0.03  0.00  0.00  0.00
  WS02006238WS02006235    1.00   0.00  0.00  0.00  1.00  0.00  0.00  0.00  0.00  0.00
  WS02006239WS02006238    1.00   0.00  0.00  0.00  1.00  0.00  0.00  0.00  0.10  0.00
  WS02006240WS02006239    1.00   0.00  0.00  0.00  0.74  0.00  0.00  0.26  0.03  0.00
  WS02006242WS02006240    1.00   0.00  0.00  0.00  0.99  0.00  0.01  0.00  0.00  0.00
  WS02006243WS02006242    1.00   0.00  0.00  0.00  0.99  0.00  0.00  0.01  0.51  0.00
  WS02006245WS02006243    1.00   0.00  0.00  0.00  0.84  0.00  0.00  0.16  0.01  0.00
  WS02006247WS02006245    1.00   0.00  0.00  0.00  0.97  0.00  0.00  0.03  0.00  0.00
  WS02006248WS02006247    1.00   0.00  0.00  0.00  0.98  0.00  0.00  0.02  0.45  0.00
  WS02006249WS02006248    1.00   0.00  0.00  0.00  0.51  0.00  0.49  0.00  0.00  0.00
  WS02006251WS02006249    1.00   0.00  0.00  0.00  0.99  0.01  0.00  0.00  0.50  0.00
  WS02006252WS02006251    1.00   0.00  0.52  0.00  0.19  0.00  0.29  0.00  0.00  0.00
  WS02006256WS02006235    1.00   0.00  0.00  0.00  0.98  0.02  0.00  0.00  0.00  0.00
  WSF200WS02003060        1.00   0.00  0.08  0.00  0.38  0.54  0.00  0.00  0.52  0.00
  YS02001580YS02001583    1.00   0.13  0.50  0.00  0.36  0.00  0.00  0.00  0.59  0.00
  YS02001583YS02001586    1.00   0.37  0.21  0.00  0.42  0.00  0.00  0.00  0.60  0.00
  YS02001586YS02001590    1.00   0.13  0.00  0.00  0.51  0.03  0.00  0.33  0.27  0.00
  YS02001590YS02001593    1.00   0.13  0.00  0.00  0.28  0.00  0.59  0.00  0.00  0.00
  YS02001593YS02001596    1.00   0.13  0.00  0.00  0.29  0.00  0.00  0.58  0.01  0.00
  YS02001596YS02001600    1.00   0.13  0.00  0.00  0.32  0.01  0.00  0.55  0.02  0.00
  YS02001600YS02001601    1.00   0.13  0.00  0.00  0.87  0.00  0.00  0.00  0.52  0.00
  YS02001601YS02001602    1.00   0.13  0.00  0.00  0.87  0.00  0.00  0.00  0.00  0.00
  YS02001602YS02001605    1.00   0.13  0.00  0.00  0.87  0.00  0.00  0.00  0.00  0.00
  YS02001605YS02001607    1.00   0.13  0.00  0.00  0.87  0.00  0.00  0.00  0.00  0.00
  YS02001607YS02001610    1.00   0.13  0.00  0.00  0.87  0.00  0.00  0.00  0.00  0.00
  YS02001610YS02001613    1.00   0.13  0.00  0.00  0.87  0.00  0.00  0.00  0.00  0.00
  YS02001613YS02001616    1.00   0.13  0.00  0.00  0.87  0.00  0.00  0.00  0.00  0.00
  YS02001616YS02001619    1.00   0.13  0.00  0.00  0.87  0.00  0.00  0.00  0.00  0.00
  YS02001619YS02001622    1.00   0.13  0.00  0.00  0.87  0.00  0.00  0.00  0.24  0.00
  YS02001622YS02001625    1.00   0.13  0.00  0.00  0.87  0.00  0.00  0.00  0.00  0.00
  YS02001625YS02001629    1.00   0.13  0.01  0.00  0.33  0.00  0.54  0.00  0.00  0.00
  YS02001629YS02163301    1.00   0.13  0.00  0.00  0.87  0.00  0.00  0.00  0.00  0.00
  YS02001633YS02163601    1.00   0.00  0.01  0.00  0.99  0.00  0.00  0.00  0.12  0.00
  YS02001641YS02001644    1.00   0.00  0.01  0.00  0.99  0.00  0.00  0.00  0.01  0.00
  YS02001644YS02001647    1.00   0.00  0.13  0.00  0.87  0.00  0.00  0.00  0.00  0.00
  YS02001647YS02001649    1.00   0.00  0.13  0.00  0.65  0.22  0.00  0.00  0.52  0.00
  YS02001649YS02001757    1.00   0.00  0.00  0.00  0.77  0.23  0.00  0.00  0.32  0.00
  YS02001652YS02001649    1.00   0.00  0.00  0.00  1.00  0.00  0.00  0.00  0.63  0.00
  YS02001655YS02001652    1.00   0.00  0.00  0.00  0.35  0.00  0.00  0.65  0.02  0.00
  YS02001658YS02001655    1.00   0.00  0.13  0.00  0.84  0.04  0.00  0.00  0.55  0.00
  YS02001661YS02001658    1.00   0.13  0.00  0.00  0.69  0.18  0.00  0.00  0.58  0.00
  YS02001664YS02001661    1.00   0.13  0.00  0.00  0.86  0.02  0.00  0.00  0.63  0.00
  YS02001745YS02001748    1.00   0.00  0.00  0.00  0.31  0.00  0.00  0.69  0.03  0.00
  YS02001748YS02001751    1.00   0.00  0.00  0.00  0.98  0.02  0.00  0.00  0.67  0.00
  YS02001751YS02001754    1.00   0.00  0.00  0.00  0.35  0.00  0.00  0.65  0.02  0.00
  YS02001754YS02001757    1.00   0.00  0.00  0.00  1.00  0.00  0.00  0.00  0.64  0.00
  YS02001757CaochengTiaoxuchi    1.00   0.00  0.00  0.00  0.98  0.02  0.00  0.00  0.63  0.00
  YS02001759YS02001757    1.00   0.00  0.00  0.00  0.99  0.01  0.00  0.00  0.56  0.00
  YS02001762YS02001759    1.00   0.00  0.00  0.00  1.00  0.00  0.00  0.00  0.01  0.00
  YS02001765YS02001762    1.00   0.00  0.00  0.00  1.00  0.00  0.00  0.00  0.61  0.00
  YS02001767YS02001765    1.00   0.00  0.00  0.00  1.00  0.00  0.00  0.00  0.00  0.00
  YS02001770YS02001767    1.00   0.00  0.00  0.00  1.00  0.00  0.00  0.00  0.00  0.00
  YS02001774YS02001770    1.00   0.00  0.12  0.00  0.73  0.00  0.14  0.00  0.00  0.00
  YS02001779YS02001774    1.00   0.00  0.00  0.00  1.00  0.00  0.00  0.00  0.64  0.00
  YS02001783YS02001784    1.00   0.00  0.13  0.00  0.87  0.00  0.00  0.00  0.52  0.00
  YS02001784YS02001785    1.00   0.00  0.00  0.00  1.00  0.00  0.00  0.00  0.12  0.00
  YS02001786YS02001788    1.00   0.00  0.00  0.00  0.89  0.11  0.00  0.00  0.00  0.00
  YS02001788YS02001790    1.00   0.00  0.00  0.00  0.25  0.75  0.00  0.00  0.72  0.00
  YS02001790YS02001791    1.00   0.00  0.00  0.00  0.01  0.99  0.00  0.00  0.10  0.00
  YS02001791YS02001793    1.00   0.00  0.00  0.00  0.00  1.00  0.00  0.00  0.04  0.00
  YS02001793JiankangQianchi    1.00   0.00  0.00  0.00  0.87  0.13  0.00  0.00  0.84  0.00
  YS02001882YS02001884    1.00   0.13  0.00  0.00  0.87  0.00  0.00  0.00  0.00  0.00
  YS02001884YS02001887    1.00   0.06  0.05  0.00  0.89  0.00  0.00  0.00  0.00  0.00
  YS02001887YS02001890    1.00   0.00  0.00  0.00  0.97  0.00  0.03  0.00  0.00  0.00
  YS02001890YS02001895    1.00   0.00  0.13  0.00  0.87  0.00  0.00  0.00  0.00  0.00
  YS02001895YS02001898    1.00   0.13  0.00  0.00  0.87  0.00  0.00  0.00  0.00  0.00
  YS02001898YS02001901    1.00   0.13  0.00  0.00  0.87  0.00  0.00  0.00  0.00  0.00
  YS02001901YS02001904    1.00   0.13  0.00  0.00  0.87  0.00  0.00  0.00  0.00  0.00
  YS02001904YS02001907    1.00   0.00  0.13  0.00  0.87  0.00  0.00  0.00  0.00  0.00
  YS02001907YS02006553    1.00   0.00  0.02  0.00  0.98  0.00  0.00  0.00  0.00  0.00
  YS02001910YS02001907    1.00   0.00  0.00  0.00  0.97  0.00  0.00  0.03  0.10  0.00
  YS02001915YS02001910    1.00   0.00  0.00  0.00  0.98  0.02  0.00  0.00  0.10  0.00
  YS02001918YS02001915    1.00   0.00  0.01  0.00  0.98  0.02  0.00  0.00  0.61  0.00
  YS02001920YS02001918    1.00   0.00  0.01  0.00  0.99  0.00  0.00  0.00  0.00  0.00
  YS02001923YS02001920    1.00   0.00  0.00  0.00  1.00  0.00  0.00  0.00  0.75  0.00
  YS02001926YS02001923    1.00   0.00  0.07  0.00  0.24  0.00  0.68  0.00  0.00  0.00
  YS02001929YS02001926    1.00   0.00  0.13  0.00  0.87  0.00  0.00  0.00  0.62  0.00
  YS02006553YS02006556    1.00   0.01  0.00  0.00  0.99  0.00  0.00  0.00  0.03  0.00
  YS02006556YS02006558    1.00   0.00  0.00  0.00  1.00  0.00  0.00  0.00  0.00  0.00
  YS02006558YS02006561    1.00   0.13  0.00  0.00  0.24  0.63  0.00  0.00  0.12  0.00
  YS02006561YS02001783    1.00   0.13  0.00  0.00  0.26  0.61  0.00  0.00  0.60  0.00
  YS02163301YS02001633    1.00   0.00  0.13  0.00  0.87  0.00  0.00  0.00  0.00  0.00
  YS02163601YS02164001    1.00   0.00  0.08  0.00  0.92  0.00  0.00  0.00  0.00  0.00
  YS02164001YS02001641    1.00   0.01  0.07  0.00  0.92  0.00  0.00  0.00  0.05  0.00
  
  
  *************************
  Conduit Surcharge Summary
  *************************
  
  ----------------------------------------------------------------------------
                                                           Hours        Hours 
                         --------- Hours Full --------   Above Full   Capacity
  Conduit                Both Ends  Upstream  Dnstream   Normal Flow   Limited
  ----------------------------------------------------------------------------
  WS02003072WS02003073        0.01      0.01      0.01      2.00         0.01
  WS02004403WS02004404        0.01      0.01      0.04      0.01         0.01
  WS02004404WS02004405        0.01      0.04      0.01      3.56         0.01
  WS02004405WS02004406        0.01      0.01      0.01      1.13         0.01
  WS02006109WS02006110        1.22      1.22      2.72      1.38         0.01
  WS02006110WS02006113        0.01      0.01      2.71      0.01         0.01
  WS02006111WS02006112        0.01      0.01      2.89      0.01         0.01
  WS02006112WS02006115        0.01      0.01      1.43      0.01         0.01
  WS02006228WS02006109        2.70      2.72      2.70      3.18         2.70
  WS02006229WS02006228        2.70      2.70      2.70      2.86         2.69
  WS02006230WS02006229        2.76      2.82      2.76      4.11         2.76
  WS02006231WS02006230        1.25      1.25      1.46      3.76         0.01
  WS02006232WS02006231        1.40      1.40      2.72      1.49         0.01
  WS02006234WS02006232        2.63      2.64      2.72      1.47         1.45
  WS02006235WS02006234        1.80      1.81      2.65      3.61         0.03
  WS02006238WS02006235        2.66      2.67      2.72      0.01         0.01
  WS02006239WS02006238        2.69      2.71      2.70      2.76         2.38
  WS02006240WS02006239        2.67      2.70      2.68      2.77         2.22
  WS02006242WS02006240        2.69      2.69      2.73      2.91         0.01
  WS02006243WS02006242        2.69      2.69      2.71      0.01         0.06
  WS02006245WS02006243        2.69      2.69      2.69      1.50         1.62
  WS02006247WS02006245        2.69      2.69      2.69      3.39         2.67
  WS02006248WS02006247        2.68      2.68      2.69      0.01         0.06
  WS02006249WS02006248        2.68      2.68      2.68      3.36         0.01
  WS02006251WS02006249        2.68      2.68      2.68      2.87         2.59
  WS02006252WS02006251        2.97      2.97      2.98      2.97         0.01
  WS02006256WS02006235        3.64      3.70      7.19      1.82         0.01
  YS02001580YS02001583        2.02      2.02      2.05      0.01         0.01
  YS02001583YS02001586        2.03      2.03      2.13      0.01         0.01
  YS02001586YS02001590        2.13      2.13      2.17      0.01         0.01
  YS02001590YS02001593        2.17      2.17      2.18      2.20         0.01
  YS02001593YS02001596        2.18      2.18      2.23      0.01         0.01
  YS02001596YS02001600        2.25      2.25      2.32      0.01         0.01
  YS02001600YS02001601        2.35      2.35      2.50      0.01         0.01
  YS02001601YS02001602        2.46      2.46      2.52      2.24         0.01
  YS02001602YS02001605        2.44      2.44      2.46      2.92         0.01
  YS02001605YS02001607        2.43      2.44      2.45      2.33         2.31
  YS02001607YS02001610        2.20      2.20      2.21      0.01         0.01
  YS02001610YS02001613        2.20      2.20      2.21      0.01         0.01
  YS02001613YS02001616        2.17      2.17      2.20      0.01         0.01
  YS02001616YS02001619        2.16      2.16      2.17      0.81         0.65
  YS02001619YS02001622        2.16      2.16      2.17      2.04         1.95
  YS02001622YS02001625        2.17      2.17      2.31      0.01         0.01
  YS02001625YS02001629        2.15      2.15      2.31      0.01         0.01
  YS02001629YS02163301        2.32      2.32      2.34      0.01         0.01
  YS02001633YS02163601        2.36      2.36      2.40      0.02         0.01
  YS02001641YS02001644        2.36      2.37      2.36      2.57         2.11
  YS02001644YS02001647        2.24      2.24      2.36      0.02         0.01
  YS02001647YS02001649        2.24      2.24      2.37      0.01         0.01
  YS02001649YS02001757        2.37      2.37      2.45      0.02         0.02
  YS02001652YS02001649        2.23      2.23      2.37      0.01         0.01
  YS02001655YS02001652        2.08      2.08      2.22      0.01         0.01
  YS02001658YS02001655        1.90      1.90      2.08      0.01         0.01
  YS02001661YS02001658        0.82      0.82      1.90      0.01         0.01
  YS02001664YS02001661        0.01      0.01      1.28      0.01         0.01
  YS02001745YS02001748        0.01      0.01      1.88      0.01         0.01
  YS02001748YS02001751        1.92      1.92      2.05      0.01         0.01
  YS02001751YS02001754        2.05      2.05      2.18      0.01         0.01
  YS02001754YS02001757        2.21      2.21      2.45      0.01         0.01
  YS02001757CaochengTiaoxuchi        2.32      2.45      2.75      0.82         0.67
  YS02001759YS02001757        2.38      2.38      2.45      0.22         0.22
  YS02001762YS02001759        2.35      2.35      2.38      0.01         0.01
  YS02001765YS02001762        2.32      2.32      2.35      0.01         0.01
  YS02001767YS02001765        2.29      2.29      2.32      0.01         0.01
  YS02001770YS02001767        2.28      2.28      2.29      1.97         1.75
  YS02001774YS02001770        2.27      2.27      2.33      0.01         0.01
  YS02001779YS02001774        2.16      2.16      2.33      0.01         0.01
  YS02001783YS02001784        1.98      1.99      1.98      2.05         1.98
  YS02001784YS02001785        1.92      1.98      1.92      2.11         1.92
  YS02001786YS02001788        0.01      1.92      0.01      2.08         0.01
  YS02001790YS02001791        0.01      0.01      0.01      1.97         0.01
  YS02001793JiankangQianchi        0.01      0.01      6.53      0.01         0.01
  YS02001882YS02001884        1.97      1.97      1.97      0.01         0.01
  YS02001884YS02001887        1.98      1.98      1.99      0.01         0.01
  YS02001887YS02001890        2.00      2.00      2.00      0.91         0.01
  YS02001890YS02001895        1.96      1.96      2.01      0.01         0.01
  YS02001895YS02001898        1.95      1.95      1.96      0.01         0.01
  YS02001898YS02001901        1.96      1.96      1.98      0.01         0.01
  YS02001901YS02001904        1.98      1.98      1.98      0.01         0.01
  YS02001904YS02001907        1.98      1.98      2.08      0.01         0.01
  YS02001907YS02006553        2.11      2.11      2.14      0.01         0.01
  YS02001910YS02001907        2.00      2.00      2.07      0.54         0.55
  YS02001915YS02001910        1.97      1.97      2.00      0.01         0.03
  YS02001918YS02001915        1.92      1.92      1.97      0.01         0.01
  YS02001920YS02001918        1.92      1.92      1.93      0.01         0.01
  YS02001923YS02001920        1.89      1.89      1.93      0.01         0.01
  YS02001926YS02001923        0.92      0.92      1.04      0.36         0.01
  YS02001929YS02001926        0.66      0.66      1.04      0.01         0.01
  YS02006553YS02006556        2.04      2.04      2.08      0.01         0.01
  YS02006556YS02006558        2.06      2.06      2.08      0.01         0.01
  YS02006558YS02006561        1.94      2.03      1.94      2.10         1.94
  YS02006561YS02001783        1.90      1.90      1.99      0.01         0.01
  YS02163301YS02001633        2.34      2.34      2.37      0.01         0.01
  YS02163601YS02164001        2.35      2.35      2.40      0.01         0.01
  YS02164001YS02001641        2.35      2.35      2.37      0.15         0.31
  
  
  ***************
  Pumping Summary
  ***************
  
  ---------------------------------------------------------------------------------------------------------
                                                  Min       Avg       Max     Total     Power    % Time Off
                        Percent   Number of      Flow      Flow      Flow    Volume     Usage    Pump Curve
  Pump                 Utilized   Start-Ups       LPS       LPS       LPS  10^6 ltr     Kw-hr    Low   High
  ---------------------------------------------------------------------------------------------------------
  CC-R1                   38.88          18      0.00    683.00    683.00     7.648    151.72    0.0   62.6
  CC-R2                   40.31          14      0.00    683.00    683.00     7.929    156.16    0.0   65.8
  CC-S1                   41.29          21      0.00    200.00    200.00     2.378     10.44    0.0   46.3
  CC-S2                   39.25          16      0.00    200.00    200.00     2.261      9.73    0.0   48.7
  JK-R1                   14.22          24      0.00   1000.00   1000.00     4.095     46.58    0.0    0.0
  JK-R2                   10.93          16      0.00   1000.00   1000.00     3.147     31.01    0.0    0.0
  JK-S                    22.24          42      0.00    300.00    300.00     1.921     28.80    0.0    0.0
  

  Analysis begun on:  Thu Feb 27 17:17:09 2025
  Analysis ended on:  Thu Feb 27 17:17:10 2025
  Total elapsed time: 00:00:01