
  EPA STORM WATER MANAGEMENT MODEL - VERSION 5.2 (Build 5.2.4)
  PYSWMM TOOLKIT API - VERSION v1.0 (2023-11-27)
  ------------------------------------------------------------

  WARNING 04: minimum elevation drop used for Conduit WS02004404WS02004405
  WARNING 03: negative offset ignored for Link YS02001904YS02001907
  
  ****************
  Analysis Options
  ****************
  Flow Units ............... LPS
  Process Models:
    Rainfall/Runoff ........ YES
    RDII ................... NO
    Snowmelt ............... NO
    Groundwater ............ NO
    Flow Routing ........... YES
    Ponding Allowed ........ NO
    Water Quality .......... NO
  Infiltration Method ...... HORTON
  Flow Routing Method ...... DYNWAVE
  Surcharge Method ......... EXTRAN
  Starting Date ............ 08/28/2015 08:00:00
  Ending Date .............. 08/28/2015 16:00:00
  Antecedent Dry Days ...... 8.0
  Report Time Step ......... 00:01:00
  Wet Time Step ............ 00:01:00
  Dry Time Step ............ 00:01:00
  Routing Time Step ........ 30.00 sec
  Variable Time Step ....... YES
  Maximum Trials ........... 8
  Number of Threads ........ 4
  Head Tolerance ........... 0.001500 m
  
  
  **************************        Volume         Depth
  Runoff Quantity Continuity     hectare-m            mm
  **************************     ---------       -------
  Total Precipitation ......         1.548        46.668
  Evaporation Loss .........         0.000         0.000
  Infiltration Loss ........         0.095         2.858
  Surface Runoff ...........         1.421        42.828
  Final Storage ............         0.033         0.993
  Continuity Error (%) .....        -0.024
  
  
  **************************        Volume        Volume
  Flow Routing Continuity        hectare-m      10^6 ltr
  **************************     ---------     ---------
  Dry Weather Inflow .......         0.025         0.251
  Wet Weather Inflow .......         1.421        14.210
  Groundwater Inflow .......         0.000         0.000
  RDII Inflow ..............         0.000         0.000
  External Inflow ..........         0.083         0.834
  External Outflow .........         1.290        12.901
  Flooding Loss ............         0.309         3.091
  Evaporation Loss .........         0.000         0.000
  Exfiltration Loss ........         0.000         0.000
  Initial Stored Volume ....         0.243         2.431
  Final Stored Volume ......         0.182         1.819
  Continuity Error (%) .....        -0.479
  
  
  *************************
  Highest Continuity Errors
  *************************
  Node YS02001884 (5.56%)
  Node YS02001583 (-5.38%)
  Node WS02006256 (-2.50%)
  Node YS02001774 (1.51%)
  
  
  ***************************
  Time-Step Critical Elements
  ***************************
  Link WS02006252WS02006251 (32.64%)
  Link WS02006238WS02006235 (25.35%)
  Link WS02004404WS02004405 (20.07%)
  Link YS02001791YS02001793 (5.72%)
  Link WS02003066WSF200 (3.82%)
  
  
  ********************************
  Highest Flow Instability Indexes
  ********************************
  Link WS02006113WS02006111 (33)
  Link WS02006256WS02006235 (18)
  Link WS02006238WS02006235 (17)
  Link WS02004404WS02004405 (17)
  Link WS02004403WS02004404 (15)
  
  
  *********************************
  Most Frequent Nonconverging Nodes
  *********************************
  Node CC-1 (15.54%)
  Node CC-2 (15.54%)
  Node JK-1 (15.54%)
  Node JK-2 (15.54%)
  Node WSC (15.54%)
  
  
  *************************
  Routing Time Step Summary
  *************************
  Minimum Time Step           :     0.01 sec
  Average Time Step           :     2.57 sec
  Maximum Time Step           :     6.43 sec
  % of Time in Steady State   :     0.00
  Average Iterations per Step :     3.42
  % of Steps Not Converging   :    15.54
  Time Step Frequencies       :
     30.000 - 13.228 sec      :     0.00 %
     13.228 -  5.833 sec      :    13.90 %
      5.833 -  2.572 sec      :    25.61 %
      2.572 -  1.134 sec      :    22.13 %
      1.134 -  0.500 sec      :    38.36 %
  
  
  ***************************
  Subcatchment Runoff Summary
  ***************************
  
  ------------------------------------------------------------------------------------------------------------------------------
                            Total      Total      Total      Total     Imperv       Perv      Total       Total     Peak  Runoff
                           Precip      Runon       Evap      Infil     Runoff     Runoff     Runoff      Runoff   Runoff   Coeff
  Subcatchment                 mm         mm         mm         mm         mm         mm         mm    10^6 ltr      LPS
  ------------------------------------------------------------------------------------------------------------------------------
  sub60                     46.67       0.00       0.00       1.71      39.86       3.89      43.75        0.57   434.94   0.938
  sub61                     46.67       0.00       0.00       2.49      37.60       5.45      43.05        0.79   602.65   0.922
  sub62                     46.67       0.00       0.00       1.14      41.65       2.59      44.24        1.21   841.75   0.948
  sub63                     46.67       0.00       0.00       4.62      32.16       8.92      41.08        0.93   664.26   0.880
  sub64                     46.67       0.00       0.00       2.33      38.46       4.67      43.13        1.04   678.53   0.924
  sub65                     46.67       0.00       0.00       2.02      39.35       4.05      43.40        1.19   754.99   0.930
  sub66                     46.67       0.00       0.00       5.72      32.06       7.82      39.88        1.86   959.56   0.855
  sub67                     46.67       0.00       0.00       1.10      41.69       2.64      44.32        0.82   664.80   0.950
  sub68                     46.67       0.00       0.00       2.06      38.95       4.47      43.42        1.19   862.34   0.930
  sub69                     46.67       0.00       0.00       1.82      39.56       5.18      44.74        1.66  1005.88   0.959
  sub70                     46.67       0.00       0.00       6.09      30.64       9.78      40.41        1.17   537.54   0.866
  sub71                     46.67       0.00       0.00       1.17      41.61       2.56      44.17        1.16   734.68   0.946
  sub72                     46.67       0.00       0.00       1.05      42.00       2.22      44.22        0.61   350.03   0.948
  
  
  ******************
  Node Depth Summary
  ******************
  
  ---------------------------------------------------------------------------------
                                 Average  Maximum  Maximum  Time of Max    Reported
                                   Depth    Depth      HGL   Occurrence   Max Depth
  Node                 Type       Meters   Meters   Meters  days hr:min      Meters
  ---------------------------------------------------------------------------------
  WS02003060           JUNCTION     0.21     0.38     5.32     0  02:41        0.38
  WS02003066           JUNCTION     0.17     0.30     5.85     0  02:41        0.30
  WS02003067           JUNCTION     0.46     0.70     6.02     0  02:41        0.70
  WS02003069           JUNCTION     0.23     0.43     5.01     0  02:42        0.43
  WS02003072           JUNCTION     0.29     0.50     4.87     0  02:43        0.50
  WS02003073           JUNCTION     0.16     0.30     4.36     0  02:44        0.30
  WS02004401           JUNCTION     0.55     0.88     6.88     0  02:39        0.88
  WS02004402           JUNCTION     0.58     0.90     6.86     0  02:39        0.90
  WS02004403           JUNCTION     0.61     0.92     6.85     0  02:39        0.92
  WS02004404           JUNCTION     0.68     1.03     6.88     0  02:30        1.00
  WS02004405           JUNCTION     0.67     0.97     6.82     0  02:37        0.96
  WS02004406           JUNCTION     0.68     0.96     6.79     0  02:39        0.96
  WS02004407           JUNCTION     0.15     0.30     6.61     0  02:39        0.30
  WS02004409           JUNCTION     0.34     0.67     6.44     0  02:41        0.67
  WS02004410           JUNCTION     0.37     0.68     6.40     0  02:42        0.68
  WS02004411           JUNCTION     0.39     0.69     6.37     0  02:42        0.69
  WS02004412           JUNCTION     0.41     0.70     6.34     0  02:42        0.70
  WS02004413           JUNCTION     0.57     0.86     6.33     0  02:41        0.86
  WS02006109           JUNCTION     0.60     1.14     7.76     0  02:31        1.00
  WS02006110           JUNCTION     0.61     1.19     7.78     0  02:31        1.01
  WS02006111           JUNCTION     0.16     0.29     6.99     0  02:58        0.29
  WS02006112           JUNCTION     0.70     1.08     6.96     0  02:50        1.07
  WS02006113           JUNCTION     0.24     0.46     7.35     0  03:08        0.46
  WS02006115           JUNCTION     0.43     0.77     6.91     0  02:40        0.77
  WS02006116           JUNCTION     0.52     0.85     6.89     0  02:40        0.85
  WS02006228           JUNCTION     0.59     1.23     7.89     0  02:42        1.19
  WS02006229           JUNCTION     0.56     1.30     8.00     0  02:42        1.26
  WS02006230           JUNCTION     0.56     1.63     8.37     0  02:42        1.63
  WS02006231           JUNCTION     0.38     1.45     8.57     0  02:41        1.19
  WS02006232           JUNCTION     0.50     1.48     8.52     0  03:15        1.38
  WS02006234           JUNCTION     0.42     1.73     8.89     0  03:15        1.32
  WS02006235           JUNCTION     0.46     1.87     9.03     0  02:41        1.33
  WS02006238           JUNCTION     0.49     1.92     9.06     0  02:41        1.36
  WS02006239           JUNCTION     0.44     1.83     9.04     0  02:41        1.39
  WS02006240           JUNCTION     0.41     1.70     8.99     0  02:41        1.35
  WS02006242           JUNCTION     0.46     1.55     8.82     0  02:17        1.41
  WS02006243           JUNCTION     0.37     1.41     8.83     0  02:41        1.28
  WS02006245           JUNCTION     0.37     1.33     8.81     0  02:41        1.23
  WS02006247           JUNCTION     0.39     1.28     8.78     0  02:41        1.20
  WS02006248           JUNCTION     0.36     1.10     8.69     0  02:17        1.10
  WS02006249           JUNCTION     0.39     1.09     8.69     0  02:14        1.09
  WS02006251           JUNCTION     0.39     1.39     9.06     0  02:14        1.24
  WS02006252           JUNCTION     0.28     1.50     9.74     0  00:00        0.81
  WS02006256           JUNCTION     1.07     2.35     9.28     0  00:00        2.35
  WSF200               JUNCTION     0.15     0.29     5.52     0  02:41        0.29
  YS02001580           JUNCTION     0.09     1.05     9.59     0  02:08        0.77
  YS02001583           JUNCTION     0.12     1.14     9.64     0  02:08        0.82
  YS02001586           JUNCTION     0.21     1.13     9.30     0  02:08        1.13
  YS02001590           JUNCTION     0.31     1.40     9.26     0  02:05        1.38
  YS02001593           JUNCTION     0.24     1.33     9.19     0  02:08        1.29
  YS02001596           JUNCTION     0.33     1.69     9.10     0  02:08        1.66
  YS02001600           JUNCTION     0.40     1.87     9.00     0  02:06        1.87
  YS02001601           JUNCTION     0.60     2.06     8.90     0  02:06        2.06
  YS02001602           JUNCTION     0.51     1.87     8.77     0  02:06        1.87
  YS02001605           JUNCTION     0.47     1.78     8.68     0  02:07        1.78
  YS02001607           JUNCTION     0.45     1.68     8.53     0  02:07        1.65
  YS02001610           JUNCTION     0.50     1.68     8.48     0  02:07        1.68
  YS02001613           JUNCTION     0.46     1.70     8.54     0  02:07        1.67
  YS02001616           JUNCTION     0.39     1.61     8.52     0  02:07        1.61
  YS02001619           JUNCTION     0.36     1.61     8.54     0  02:07        1.57
  YS02001622           JUNCTION     0.35     1.62     8.52     0  02:07        1.55
  YS02001625           JUNCTION     0.61     1.78     8.38     0  02:07        1.78
  YS02001629           JUNCTION     0.48     1.85     8.40     0  02:07        1.85
  YS02001633           JUNCTION     0.55     2.05     8.51     0  02:12        2.03
  YS02001641           JUNCTION     0.53     1.99     8.43     0  02:21        1.96
  YS02001644           JUNCTION     0.52     1.92     8.35     0  02:12        1.92
  YS02001647           JUNCTION     0.29     1.81     8.42     0  02:12        1.72
  YS02001649           JUNCTION     0.33     2.05     8.44     0  02:12        1.90
  YS02001652           JUNCTION     0.21     2.05     8.64     0  02:12        1.73
  YS02001655           JUNCTION     0.15     2.18     9.03     0  02:12        1.51
  YS02001658           JUNCTION     0.11     2.30     9.44     0  02:12        1.25
  YS02001661           JUNCTION     0.14     1.38     8.78     0  02:13        1.03
  YS02001664           JUNCTION     0.06     0.63     8.55     0  02:13        0.51
  YS02001745           JUNCTION     0.06     0.89     8.41     0  02:12        0.88
  YS02001748           JUNCTION     0.10     1.81     8.89     0  02:12        1.28
  YS02001751           JUNCTION     0.12     1.76     8.64     0  02:12        1.45
  YS02001754           JUNCTION     0.17     1.84     8.45     0  02:12        1.64
  YS02001757           JUNCTION     0.33     2.03     8.29     0  02:12        1.93
  YS02001759           JUNCTION     0.27     1.98     8.35     0  02:12        1.92
  YS02001762           JUNCTION     0.26     1.99     8.39     0  02:12        1.91
  YS02001765           JUNCTION     0.24     2.10     8.55     0  02:11        1.88
  YS02001767           JUNCTION     0.24     2.03     8.52     0  02:11        1.86
  YS02001770           JUNCTION     0.26     1.95     8.44     0  02:11        1.90
  YS02001774           JUNCTION     0.32     2.00     8.42     0  02:12        1.96
  YS02001779           JUNCTION     0.16     1.68     8.37     0  02:11        1.68
  YS02001783           JUNCTION     0.26     1.60     7.74     0  02:10        1.25
  YS02001784           JUNCTION     0.28     1.31     7.38     0  02:10        1.12
  YS02001786           JUNCTION     0.23     1.18     7.21     0  02:10        0.88
  YS02001788           JUNCTION     0.17     0.62     6.60     0  02:14        0.62
  YS02001790           JUNCTION     0.20     0.72     6.37     0  02:14        0.72
  YS02001791           JUNCTION     0.13     0.44     5.91     0  02:13        0.43
  YS02001793           JUNCTION     0.07     0.29     5.12     0  02:11        0.29
  YS02001882           JUNCTION     0.33     1.83     8.55     0  02:09        1.63
  YS02001884           JUNCTION     0.41     1.90     8.52     0  02:09        1.73
  YS02001887           JUNCTION     0.49     1.90     8.44     0  02:09        1.81
  YS02001890           JUNCTION     0.52     1.81     8.32     0  02:09        1.81
  YS02001895           JUNCTION     0.30     1.75     8.50     0  02:09        1.56
  YS02001898           JUNCTION     0.30     1.77     8.51     0  02:09        1.56
  YS02001901           JUNCTION     0.41     1.79     8.40     0  02:09        1.67
  YS02001904           JUNCTION     0.39     1.65     8.28     0  02:21        1.63
  YS02001907           JUNCTION     0.71     1.96     8.25     0  02:10        1.96
  YS02001910           JUNCTION     0.51     2.10     8.61     0  02:09        1.84
  YS02001915           JUNCTION     0.32     2.00     8.72     0  02:09        1.70
  YS02001918           JUNCTION     0.17     1.81     8.88     0  02:10        1.37
  YS02001920           JUNCTION     0.25     2.14     9.15     0  02:11        1.51
  YS02001923           JUNCTION     0.13     2.03     9.29     0  02:11        1.20
  YS02001926           JUNCTION     0.17     1.90     9.35     0  02:11        1.02
  YS02001929           JUNCTION     0.09     1.78     9.47     0  02:11        0.77
  YS02006553           JUNCTION     0.71     2.08     8.36     0  02:10        1.97
  YS02006556           JUNCTION     0.68     2.18     8.49     0  02:10        1.95
  YS02006558           JUNCTION     0.73     2.25     8.52     0  02:10        1.99
  YS02006561           JUNCTION     0.16     1.48     8.14     0  02:10        0.90
  YS02163301           JUNCTION     0.50     1.94     8.45     0  02:12        1.92
  YS02163601           JUNCTION     0.59     2.08     8.48     0  02:21        2.04
  YS02164001           JUNCTION     0.52     2.01     8.47     0  02:21        1.96
  CC-1                 OUTFALL      0.00     0.00     0.00     0  00:00        0.00
  CC-2                 OUTFALL      0.00     0.00     0.00     0  00:00        0.00
  JK-1                 OUTFALL      0.00     0.00     0.00     0  00:00        0.00
  JK-2                 OUTFALL      0.00     0.00     0.00     0  00:00        0.00
  WSC                  OUTFALL      0.16     0.30     0.97     0  02:44        0.30
  CC-storage           STORAGE      0.69     1.41     6.91     0  02:35        1.41
  JK-storage           STORAGE      1.61     4.23     5.03     0  02:30        4.21
  
  
  *******************
  Node Inflow Summary
  *******************
  
  -------------------------------------------------------------------------------------------------
                                  Maximum  Maximum                  Lateral       Total        Flow
                                  Lateral    Total  Time of Max      Inflow      Inflow     Balance
                                   Inflow   Inflow   Occurrence      Volume      Volume       Error
  Node                 Type           LPS      LPS  days hr:min    10^6 ltr    10^6 ltr     Percent
  -------------------------------------------------------------------------------------------------
  WS02003060           JUNCTION     16.53   553.63     0  02:41       0.476        3.95       0.061
  WS02003066           JUNCTION      0.00   536.64     0  02:41           0        3.48       0.042
  WS02003067           JUNCTION      0.00   536.46     0  02:41           0        3.48       0.121
  WS02003069           JUNCTION      0.32   553.77     0  02:42     0.00922        3.96       0.106
  WS02003072           JUNCTION      0.00   553.28     0  02:42           0        3.96       0.184
  WS02003073           JUNCTION      1.82   554.91     0  02:43      0.0524           4       0.148
  WS02004401           JUNCTION      0.00   539.02     0  02:39           0        3.59       0.292
  WS02004402           JUNCTION      0.00   539.49     0  02:43           0        3.58       0.295
  WS02004403           JUNCTION      0.00   540.71     0  02:38           0        3.57       0.286
  WS02004404           JUNCTION      0.16   554.54     0  02:37     0.00467        3.56       0.244
  WS02004405           JUNCTION      0.04   602.60     0  02:37      0.0011        3.55       0.293
  WS02004406           JUNCTION      0.00   543.60     0  02:39           0        3.54       0.599
  WS02004407           JUNCTION      0.00   539.74     0  02:39           0        3.52       0.034
  WS02004409           JUNCTION      0.00   538.81     0  02:39           0        3.52       0.079
  WS02004410           JUNCTION      0.00   537.85     0  02:39           0        3.52       0.131
  WS02004411           JUNCTION      0.00   537.19     0  02:40           0        3.51       0.165
  WS02004412           JUNCTION      0.00   537.08     0  02:40           0        3.51       0.218
  WS02004413           JUNCTION      0.00   536.74     0  02:40           0         3.5       0.394
  WS02006109           JUNCTION      1.23   567.79     0  02:42      0.0354        3.64       0.234
  WS02006110           JUNCTION      0.00   570.07     0  02:42           0        3.63       0.203
  WS02006111           JUNCTION      0.00   560.56     0  02:58           0        3.62       0.027
  WS02006112           JUNCTION      0.00   543.88     0  02:58           0        3.62       0.565
  WS02006113           JUNCTION      0.00   572.10     0  02:42           0        3.62       0.058
  WS02006115           JUNCTION      0.00   552.48     0  02:56           0         3.6       0.205
  WS02006116           JUNCTION      0.00   540.02     0  02:43           0        3.59       0.117
  WS02006228           JUNCTION      0.00   562.83     0  02:42           0        3.61       0.121
  WS02006229           JUNCTION      0.00   562.69     0  02:42           0        3.61       0.144
  WS02006230           JUNCTION     10.28   586.50     0  03:05       0.296        3.62       0.135
  WS02006231           JUNCTION      0.00   578.78     0  02:17           0        3.32       0.013
  WS02006232           JUNCTION      0.00   577.70     0  02:17           0        3.33       0.310
  WS02006234           JUNCTION      0.00   571.72     0  02:17           0        3.31      -0.474
  WS02006235           JUNCTION      0.00   562.45     0  02:17           0        3.44       0.534
  WS02006238           JUNCTION      0.00   424.75     0  02:15           0        2.49      -0.208
  WS02006239           JUNCTION      0.00   423.96     0  02:15           0        2.41      -0.182
  WS02006240           JUNCTION      0.00   421.50     0  02:40           0        2.37      -0.084
  WS02006242           JUNCTION      0.00   421.38     0  02:15           0        2.35      -0.027
  WS02006243           JUNCTION      0.00   421.16     0  02:40           0        2.34      -0.289
  WS02006245           JUNCTION      0.00   421.64     0  02:15           0        2.35       0.715
  WS02006247           JUNCTION      0.00   421.30     0  02:15           0        2.35      -0.019
  WS02006248           JUNCTION      0.00   421.60     0  02:15           0        2.34      -0.206
  WS02006249           JUNCTION      0.00   459.02     0  00:00           0        2.53       0.967
  WS02006251           JUNCTION      0.08   407.33     0  02:14     0.00222        2.53      -0.015
  WS02006252           JUNCTION      0.00   400.00     0  00:00           0        2.51      -0.492
  WS02006256           JUNCTION      0.00   300.00     0  00:00           0        1.36      -2.442
  WSF200               JUNCTION      0.00   536.72     0  02:41           0        3.48       0.016
  YS02001580           JUNCTION      0.00   124.88     0  02:08           0     0.00446       1.881
  YS02001583           JUNCTION      0.00   192.58     0  02:08           0      0.0154      -5.106
  YS02001586           JUNCTION    537.54   537.54     0  02:15        1.17        1.18       0.100
  YS02001590           JUNCTION      0.00   322.59     0  02:21           0        1.03      -0.039
  YS02001593           JUNCTION      0.00   318.96     0  02:21           0        1.03       0.008
  YS02001596           JUNCTION      0.00   317.99     0  02:26           0        1.03      -0.005
  YS02001600           JUNCTION      0.00   318.16     0  02:21           0        1.03       0.018
  YS02001601           JUNCTION   1005.88  1323.38     0  02:14        1.66        2.69       0.021
  YS02001602           JUNCTION      0.00   525.27     0  02:07           0        1.88       0.024
  YS02001605           JUNCTION      0.00   524.97     0  02:07           0        1.81       0.033
  YS02001607           JUNCTION      0.00   524.68     0  02:07           0        1.81       0.094
  YS02001610           JUNCTION      0.00   537.25     0  02:07           0        1.84       0.108
  YS02001613           JUNCTION      0.00   543.50     0  02:07           0        1.57       0.096
  YS02001616           JUNCTION      0.00   544.31     0  02:07           0        1.57       0.020
  YS02001619           JUNCTION    959.56   959.56     0  02:15        1.86         3.4      -0.006
  YS02001622           JUNCTION      0.00   931.28     0  02:09           0        3.37      -0.005
  YS02001625           JUNCTION      0.00  1048.97     0  02:16           0         3.4       0.257
  YS02001629           JUNCTION      0.00   931.90     0  02:07           0        2.95       0.011
  YS02001633           JUNCTION    755.19  1397.87     0  02:10         1.2        4.09       0.086
  YS02001641           JUNCTION      0.00  1396.74     0  02:10           0        4.05       0.070
  YS02001644           JUNCTION    678.57  1834.40     0  02:10        1.04        5.09       0.062
  YS02001647           JUNCTION      0.00  1833.85     0  02:10           0        5.02       0.012
  YS02001649           JUNCTION      0.00  2094.91     0  02:09           0        5.95       0.002
  YS02001652           JUNCTION      0.00   829.48     0  02:14           0       0.937      -0.091
  YS02001655           JUNCTION      0.15   829.15     0  02:14     0.00443       0.938       0.065
  YS02001658           JUNCTION      0.00   828.38     0  02:13           0       0.933      -0.067
  YS02001661           JUNCTION      0.00   774.38     0  02:13           0       0.933      -0.018
  YS02001664           JUNCTION    664.26   664.26     0  02:14       0.933       0.933      -0.011
  YS02001745           JUNCTION    434.95   510.18     0  02:12       0.575       0.576       0.279
  YS02001748           JUNCTION      0.04   600.06     0  02:12      0.0013       0.577      -0.521
  YS02001751           JUNCTION      0.01   565.28     0  02:13    0.000317       0.584       0.107
  YS02001754           JUNCTION      0.26   567.13     0  02:13     0.00749       0.597      -0.187
  YS02001757           JUNCTION      0.00  3503.97     0  02:13           0        8.56       0.062
  YS02001759           JUNCTION    602.69  1387.10     0  02:12       0.791        2.01      -0.012
  YS02001762           JUNCTION      0.00   808.43     0  02:15           0        1.22       0.011
  YS02001765           JUNCTION      0.00   807.87     0  02:15           0        1.22       0.019
  YS02001767           JUNCTION      0.54   807.14     0  02:15      0.0154        1.22       0.005
  YS02001770           JUNCTION    841.90   841.90     0  02:14        1.22        1.26      -0.002
  YS02001774           JUNCTION      0.00   406.96     0  02:11           0      0.0717       1.538
  YS02001779           JUNCTION      0.01   409.17     0  02:11    0.000144      0.0301      -1.349
  YS02001783           JUNCTION      0.00  1159.62     0  02:12           0         3.2       0.008
  YS02001784           JUNCTION      1.06  1161.29     0  02:12      0.0305        3.23       0.016
  YS02001786           JUNCTION      0.06  1160.71     0  02:12     0.00162        3.23       0.021
  YS02001788           JUNCTION      0.07  1162.03     0  02:12     0.00204        3.23       0.009
  YS02001790           JUNCTION      0.15  1169.57     0  02:11     0.00446        3.24       0.021
  YS02001791           JUNCTION      0.00  1287.23     0  02:14           0        3.23      -0.019
  YS02001793           JUNCTION      0.00  1248.00     0  02:13           0        3.24       0.007
  YS02001882           JUNCTION      0.00    71.35     0  02:09           0      0.0128       6.376
  YS02001884           JUNCTION      0.00    77.86     0  02:07           0      0.0488       5.891
  YS02001887           JUNCTION    665.25   665.75     0  02:13       0.838       0.871       0.524
  YS02001890           JUNCTION      0.00   665.42     0  02:13           0        0.83       0.615
  YS02001895           JUNCTION      0.00   516.97     0  02:15           0       0.792       0.200
  YS02001898           JUNCTION      0.00   516.94     0  02:16           0       0.791       0.071
  YS02001901           JUNCTION      0.00   517.22     0  02:15           0       0.793       0.411
  YS02001904           JUNCTION      0.00   517.30     0  02:16           0       0.797       0.352
  YS02001907           JUNCTION      0.00  1621.44     0  02:15           0        2.63       0.636
  YS02001910           JUNCTION      0.00  1105.60     0  02:15           0        1.84       0.376
  YS02001915           JUNCTION    734.70  1105.47     0  02:15        1.16        1.89       0.072
  YS02001918           JUNCTION      0.00   461.36     0  02:10           0       0.764       0.011
  YS02001920           JUNCTION      2.87   461.56     0  02:10      0.0827       0.745       0.127
  YS02001923           JUNCTION      0.04   462.87     0  02:10     0.00109       0.648      -0.107
  YS02001926           JUNCTION      0.05   687.48     0  02:11      0.0015       0.626      -0.034
  YS02001929           JUNCTION    350.03   529.87     0  02:10       0.608       0.612      -0.005
  YS02006553           JUNCTION      0.00   799.47     0  02:25           0        2.02       0.585
  YS02006556           JUNCTION      0.00   798.89     0  02:26           0        2.03       0.377
  YS02006558           JUNCTION    863.22  1179.12     0  02:10        1.22        3.23       0.106
  YS02006561           JUNCTION      0.00  1178.82     0  02:10           0         3.2       0.001
  YS02163301           JUNCTION      0.00   930.86     0  02:09           0        2.94       0.052
  YS02163601           JUNCTION      0.11  1397.90     0  02:10     0.00317        4.05       0.122
  YS02164001           JUNCTION      0.00  1397.66     0  02:10           0        4.05       0.057
  CC-1                 OUTFALL       0.00   683.00     0  00:00           0        3.63       0.000
  CC-2                 OUTFALL       0.00   683.00     0  00:00           0        3.27       0.000
  JK-1                 OUTFALL       0.00  1000.00     0  00:00           0        1.53       0.000
  JK-2                 OUTFALL       0.00  1000.00     0  00:00           0       0.469       0.000
  WSC                  OUTFALL       0.00   554.77     0  02:44           0           4       0.000
  CC-storage           STORAGE       0.00  3506.87     0  02:13           0        10.8      -0.283
  JK-storage           STORAGE       0.00  1222.20     0  02:13           0        3.39      -0.511
  
  
  **********************
  Node Surcharge Summary
  **********************
  
  Surcharging occurs when water rises above the top of the highest conduit.
  ---------------------------------------------------------------------
                                               Max. Height   Min. Depth
                                   Hours       Above Crown    Below Rim
  Node                 Type      Surcharged         Meters       Meters
  ---------------------------------------------------------------------
  WS02004404           JUNCTION        0.01          0.033        2.747
  WS02006109           JUNCTION        1.17          0.323        1.497
  WS02006110           JUNCTION        0.57          0.282        1.568
  WS02006112           JUNCTION        0.73          0.077        1.603
  WS02006228           JUNCTION        1.17          0.404        1.796
  WS02006229           JUNCTION        1.18          0.503        1.947
  WS02006230           JUNCTION        0.57          0.548        1.022
  WS02006231           JUNCTION        0.66          0.735        0.795
  WS02006232           JUNCTION        1.24          0.777        0.703
  WS02006234           JUNCTION        0.95          1.014        0.226
  WS02006235           JUNCTION        1.14          1.160        0.130
  WS02006238           JUNCTION        1.19          1.195        0.235
  WS02006239           JUNCTION        1.15          1.095        0.195
  WS02006240           JUNCTION        1.16          0.989        0.401
  WS02006242           JUNCTION        1.22          0.820        0.000
  WS02006243           JUNCTION        1.12          0.697        0.073
  WS02006245           JUNCTION        1.11          0.620        0.230
  WS02006247           JUNCTION        1.11          0.566        0.194
  WS02006248           JUNCTION        1.09          0.380        0.000
  WS02006249           JUNCTION        1.09          0.390        0.000
  WS02006251           JUNCTION        0.70          0.357        0.823
  WS02006252           JUNCTION        1.44          1.100        0.000
  WS02006256           JUNCTION        6.58          2.050        0.000
  YS02001580           JUNCTION        0.41          0.450        0.000
  YS02001583           JUNCTION        0.42          0.500        0.000
  YS02001586           JUNCTION        0.52          0.510        0.000
  YS02001590           JUNCTION        0.58          0.750        0.000
  YS02001593           JUNCTION        0.58          0.708        0.132
  YS02001596           JUNCTION        0.68          0.956        0.114
  YS02001600           JUNCTION        0.80          1.190        0.000
  YS02001601           JUNCTION        1.14          1.440        0.000
  YS02001602           JUNCTION        1.03          1.270        0.000
  YS02001605           JUNCTION        0.97          1.180        0.000
  YS02001607           JUNCTION        0.54          0.680        0.000
  YS02001610           JUNCTION        0.56          0.680        0.000
  YS02001613           JUNCTION        0.54          0.700        0.000
  YS02001616           JUNCTION        0.50          0.610        0.000
  YS02001619           JUNCTION        0.49          0.610        0.000
  YS02001622           JUNCTION        0.48          0.620        0.000
  YS02001625           JUNCTION        0.64          0.780        0.000
  YS02001629           JUNCTION        0.44          0.470        0.000
  YS02001633           JUNCTION        0.65          1.031        0.029
  YS02001641           JUNCTION        0.58          0.991        0.109
  YS02001644           JUNCTION        0.54          0.920        0.000
  YS02001647           JUNCTION        0.36          0.809        0.091
  YS02001649           JUNCTION        0.45          1.050        0.000
  YS02001652           JUNCTION        0.28          1.018        0.112
  YS02001655           JUNCTION        0.18          1.184        0.016
  YS02001658           JUNCTION        0.08          1.300        0.000
  YS02001661           JUNCTION        0.01          0.308        1.082
  YS02001748           JUNCTION        0.01          0.728        0.462
  YS02001751           JUNCTION        0.11          0.757        0.443
  YS02001754           JUNCTION        0.19          0.790        0.360
  YS02001757           JUNCTION        0.48          1.027        0.183
  YS02001759           JUNCTION        0.39          0.983        0.227
  YS02001762           JUNCTION        0.36          0.993        0.157
  YS02001765           JUNCTION        0.33          1.099        0.001
  YS02001767           JUNCTION        0.31          1.030        0.000
  YS02001770           JUNCTION        0.29          0.920        0.000
  YS02001774           JUNCTION        0.35          0.999        0.051
  YS02001779           JUNCTION        0.21          0.680        0.000
  YS02001783           JUNCTION        0.39          0.799        0.801
  YS02001784           JUNCTION        0.37          0.512        0.978
  YS02001786           JUNCTION        0.29          0.380        1.050
  YS02001882           JUNCTION        0.35          0.830        0.000
  YS02001884           JUNCTION        0.36          0.840        0.030
  YS02001887           JUNCTION        0.39          0.853        0.097
  YS02001890           JUNCTION        0.40          0.760        0.000
  YS02001895           JUNCTION        0.34          0.750        0.000
  YS02001898           JUNCTION        0.33          0.740        0.000
  YS02001901           JUNCTION        0.38          0.794        0.076
  YS02001904           JUNCTION        0.37          0.651        0.199
  YS02001907           JUNCTION        0.58          0.950        0.000
  YS02001910           JUNCTION        0.42          1.100        0.000
  YS02001915           JUNCTION        0.35          1.000        0.000
  YS02001918           JUNCTION        0.27          0.810        0.000
  YS02001920           JUNCTION        0.29          1.140        0.000
  YS02001923           JUNCTION        0.01          0.820        0.000
  YS02001926           JUNCTION        0.03          0.900        0.000
  YS02001929           JUNCTION        0.01          0.780        0.000
  YS02006553           JUNCTION        0.59          1.079        0.111
  YS02006556           JUNCTION        0.50          1.140        0.210
  YS02006558           JUNCTION        0.49          1.150        0.250
  YS02006561           JUNCTION        0.24          0.681        0.469
  YS02163301           JUNCTION        0.63          0.937        0.093
  YS02163601           JUNCTION        0.67          1.080        0.000
  YS02164001           JUNCTION        0.59          1.007        0.093
  
  
  *********************
  Node Flooding Summary
  *********************
  
  Flooding refers to all water that overflows a node, whether it ponds or not.
  --------------------------------------------------------------------------
                                                             Total   Maximum
                                 Maximum   Time of Max       Flood    Ponded
                        Hours       Rate    Occurrence      Volume     Depth
  Node                 Flooded       LPS   days hr:min    10^6 ltr    Meters
  --------------------------------------------------------------------------
  WS02006242              0.01     11.41      0  02:41       0.000     0.000
  WS02006248              0.01     10.08      0  02:17       0.000     0.000
  WS02006249              0.68    105.63      0  02:14       0.164     0.000
  WS02006252              0.01    245.63      0  00:00       0.000     0.000
  WS02006256              1.26    293.19      0  00:00       0.401     0.000
  YS02001580              0.01    107.49      0  02:08       0.000     0.000
  YS02001583              0.01    139.30      0  02:08       0.000     0.000
  YS02001586              0.31    220.19      0  02:15       0.132     0.000
  YS02001590              0.01     48.36      0  02:06       0.000     0.000
  YS02001600              0.01      7.68      0  02:06       0.000     0.000
  YS02001601              0.46    925.48      0  02:14       0.811     0.000
  YS02001602              0.35     62.16      0  02:21       0.069     0.000
  YS02001605              0.01      5.55      0  02:07       0.000     0.000
  YS02001607              0.01     10.61      0  02:07       0.000     0.000
  YS02001610              0.30    442.66      0  02:16       0.290     0.000
  YS02001613              0.01     24.19      0  02:07       0.000     0.000
  YS02001616              0.01     33.20      0  02:07       0.000     0.000
  YS02001619              0.01     85.39      0  02:07       0.000     0.000
  YS02001622              0.01     97.59      0  02:07       0.000     0.000
  YS02001625              0.26   1048.90      0  02:16       0.487     0.000
  YS02001629              0.07    209.42      0  02:07       0.023     0.000
  YS02001644              0.07    478.02      0  02:13       0.060     0.000
  YS02001649              0.01     45.21      0  02:12       0.000     0.000
  YS02001658              0.01    314.88      0  02:12       0.000     0.000
  YS02001767              0.01     99.43      0  02:11       0.000     0.000
  YS02001770              0.01    138.68      0  02:11       0.000     0.000
  YS02001779              0.05    378.05      0  02:11       0.013     0.000
  YS02001882              0.01     37.40      0  02:09       0.000     0.000
  YS02001890              0.11    155.76      0  02:13       0.032     0.000
  YS02001895              0.01     18.88      0  02:09       0.000     0.000
  YS02001898              0.01     29.52      0  02:09       0.000     0.000
  YS02001907              0.23   1289.51      0  02:14       0.600     0.000
  YS02001910              0.01     45.99      0  02:09       0.000     0.000
  YS02001915              0.01    138.05      0  02:09       0.000     0.000
  YS02001918              0.01    237.47      0  02:11       0.003     0.000
  YS02001920              0.01     56.82      0  02:11       0.000     0.000
  YS02001923              0.01    438.77      0  02:11       0.003     0.000
  YS02001926              0.01    573.75      0  02:11       0.001     0.000
  YS02001929              0.01    228.93      0  02:11       0.000     0.000
  
  
  **********************
  Storage Volume Summary
  **********************
  
  ------------------------------------------------------------------------------------------------
                         Average    Avg   Evap  Exfil     Maximum    Max    Time of Max    Maximum
                          Volume   Pcnt   Pcnt   Pcnt      Volume   Pcnt     Occurrence    Outflow
  Storage Unit           1000 m³   Full   Loss   Loss     1000 m³   Full    days hr:min        LPS
  ------------------------------------------------------------------------------------------------
  CC-storage               1.923   30.0    0.0    0.0       3.932   61.3       0  02:35    1783.53
  JK-storage               0.081   27.8    0.0    0.0       0.212   72.9       0  02:30    2300.00
  
  
  ***********************
  Outfall Loading Summary
  ***********************
  
  -----------------------------------------------------------
                         Flow       Avg       Max       Total
                         Freq      Flow      Flow      Volume
  Outfall Node           Pcnt       LPS       LPS    10^6 ltr
  -----------------------------------------------------------
  CC-1                  36.75    683.00    683.00       3.633
  CC-2                  30.76    683.00    683.00       3.267
  JK-1                   9.88   1000.00   1000.00       1.535
  JK-2                   2.46   1000.00   1000.00       0.469
  WSC                   99.95    210.49    554.77       3.997
  -----------------------------------------------------------
  System                35.96   3576.49   3920.63      12.901
  
  
  ********************
  Link Flow Summary
  ********************
  
  -----------------------------------------------------------------------------
                                 Maximum  Time of Max   Maximum    Max/    Max/
                                  |Flow|   Occurrence   |Veloc|    Full    Full
  Link                 Type          LPS  days hr:min     m/sec    Flow   Depth
  -----------------------------------------------------------------------------
  1                    CONDUIT    554.77     0  02:44      2.83    0.19    0.30
  WS02003060WS02003069 CONDUIT    553.45     0  02:42      1.64    0.22    0.34
  WS02003066WSF200     CONDUIT    536.72     0  02:41      2.85    0.09    0.22
  WS02003067WS02003066 CONDUIT    536.64     0  02:41      1.21    0.17    0.42
  WS02003069WS02003072 CONDUIT    553.28     0  02:42      1.37    0.27    0.39
  WS02003072WS02003073 CONDUIT    553.09     0  02:43      1.43    1.19    0.37
  WS02004401WS02004402 CONDUIT    539.49     0  02:43      1.23    0.65    0.89
  WS02004402WS02004403 CONDUIT    540.71     0  02:38      1.26    0.78    0.91
  WS02004403WS02004404 CONDUIT    554.38     0  02:37      1.25    0.40    0.96
  WS02004404WS02004405 CONDUIT    602.56     0  02:37      1.48    5.90    0.98
  WS02004405WS02004406 CONDUIT    543.60     0  02:39      1.47    1.07    0.96
  WS02004406WS02004407 CONDUIT    539.74     0  02:39      1.04    0.24    0.63
  WS02004407WS02004409 CONDUIT    538.81     0  02:39      1.47    0.19    0.48
  WS02004409WS02004410 CONDUIT    537.85     0  02:39      0.96    0.70    0.67
  WS02004410WS02004411 CONDUIT    537.19     0  02:40      0.94    0.73    0.69
  WS02004411WS02004412 CONDUIT    537.08     0  02:40      0.96    0.76    0.69
  WS02004412WS02004413 CONDUIT    536.74     0  02:40      1.00    0.36    0.78
  WS02004413WS02003067 CONDUIT    536.46     0  02:41      1.11    0.23    0.59
  WS02006109WS02006110 CONDUIT    570.07     0  02:42      1.13    1.10    1.00
  WS02006110WS02006113 CONDUIT    572.10     0  02:42      1.38    0.52    0.79
  WS02006111WS02006112 CONDUIT    543.88     0  02:58      1.96    0.26    0.67
  WS02006112WS02006115 CONDUIT    552.48     0  02:56      0.82    0.33    0.88
  WS02006113WS02006111 CONDUIT    560.56     0  02:58      2.46    0.67    0.46
  WS02006115WS02006116 CONDUIT    540.02     0  02:43      1.28    0.69    0.78
  WS02006116WS02004401 CONDUIT    539.02     0  02:39      1.21    0.74    0.87
  WS02006228WS02006109 CONDUIT    566.56     0  02:42      1.13    2.48    1.00
  WS02006229WS02006228 CONDUIT    562.83     0  02:42      1.14    1.86    1.00
  WS02006230WS02006229 CONDUIT    562.69     0  02:42      1.46   12.52    1.00
  WS02006231WS02006230 CONDUIT    576.22     0  03:05      1.56    8.74    1.00
  WS02006232WS02006231 CONDUIT    578.78     0  02:17      1.51    1.21    1.00
  WS02006234WS02006232 CONDUIT    577.70     0  02:17      1.50    1.17    1.00
  WS02006235WS02006234 CONDUIT    571.72     0  02:17      1.49    6.03    1.00
  WS02006238WS02006235 CONDUIT    424.80     0  02:15      1.49    0.95    1.00
  WS02006239WS02006238 CONDUIT    424.75     0  02:15      1.10    1.36    1.00
  WS02006240WS02006239 CONDUIT    423.96     0  02:15      1.24    1.33    1.00
  WS02006242WS02006240 CONDUIT    421.50     0  02:40      1.13    1.67    1.00
  WS02006243WS02006242 CONDUIT    421.38     0  02:15      1.40    0.90    1.00
  WS02006245WS02006243 CONDUIT    421.16     0  02:40      1.45    1.25    1.00
  WS02006247WS02006245 CONDUIT    421.64     0  02:15      1.43    3.34    1.00
  WS02006248WS02006247 CONDUIT    421.30     0  02:15      1.44    0.92    1.00
  WS02006249WS02006248 CONDUIT    421.60     0  02:15      1.36    2.31    1.00
  WS02006251WS02006249 CONDUIT    459.02     0  00:00      1.99    1.32    1.00
  WS02006252WS02006251 CONDUIT    407.25     0  02:14     18.58    1.49    1.00
  WS02006256WS02006235 CONDUIT    288.91     0  00:00      4.23    3.06    1.00
  WSF200WS02003060     CONDUIT    537.10     0  02:41      2.06    0.12    0.28
  YS02001580YS02001583 CONDUIT    124.88     0  02:08      0.73    0.48    1.00
  YS02001583YS02001586 CONDUIT    169.92     0  02:07      0.76    0.26    1.00
  YS02001586YS02001590 CONDUIT    322.59     0  02:21      1.26    0.57    1.00
  YS02001590YS02001593 CONDUIT    318.96     0  02:21      1.13    2.00    1.00
  YS02001593YS02001596 CONDUIT    317.99     0  02:26      1.74    0.50    1.00
  YS02001596YS02001600 CONDUIT    318.16     0  02:21      1.23    0.62    1.00
  YS02001600YS02001601 CONDUIT    318.34     0  02:21      1.13    0.55    1.00
  YS02001601YS02001602 CONDUIT    525.27     0  02:07      1.86    1.90    1.00
  YS02001602YS02001605 CONDUIT    524.97     0  02:07      1.86   11.11    1.00
  YS02001605YS02001607 CONDUIT    524.68     0  02:07      1.86    2.88    1.00
  YS02001607YS02001610 CONDUIT    537.25     0  02:07      0.68    0.51    1.00
  YS02001610YS02001613 CONDUIT    543.50     0  02:07      0.69    0.63    1.00
  YS02001613YS02001616 CONDUIT    544.31     0  02:07      0.70    0.47    1.00
  YS02001616YS02001619 CONDUIT    502.86     0  02:07      0.67    0.87    1.00
  YS02001619YS02001622 CONDUIT    931.28     0  02:09      1.20    1.37    1.00
  YS02001622YS02001625 CONDUIT    932.04     0  02:07      1.19    0.50    1.00
  YS02001625YS02001629 CONDUIT    931.90     0  02:07      1.19    0.44    1.00
  YS02001629YS02163301 CONDUIT    930.86     0  02:09      1.19    1.15    1.00
  YS02001633YS02163601 CONDUIT   1397.79     0  02:10      1.78    1.47    1.00
  YS02001641YS02001644 CONDUIT   1396.28     0  02:10      1.78    4.51    1.00
  YS02001644YS02001647 CONDUIT   1833.85     0  02:10      2.34    1.08    1.00
  YS02001647YS02001649 CONDUIT   1850.20     0  02:10      2.37    0.98    1.00
  YS02001649YS02001757 CONDUIT   2080.88     0  02:10      2.65    1.26    1.00
  YS02001652YS02001649 CONDUIT    832.17     0  02:13      1.06    0.41    1.00
  YS02001655YS02001652 CONDUIT    829.48     0  02:14      1.32    0.40    1.00
  YS02001658YS02001655 CONDUIT    829.00     0  02:14      1.94    0.35    1.00
  YS02001661YS02001658 CONDUIT    828.38     0  02:13      2.38    0.33    1.00
  YS02001664YS02001661 CONDUIT    774.38     0  02:13      2.41    0.24    0.81
  YS02001745YS02001748 CONDUIT    600.01     0  02:12      2.27    0.23    0.95
  YS02001748YS02001751 CONDUIT    565.27     0  02:13      1.75    0.29    1.00
  YS02001751YS02001754 CONDUIT    566.87     0  02:13      1.46    0.27    1.00
  YS02001754YS02001757 CONDUIT    568.17     0  02:13      0.72    0.23    1.00
  YS02001757CaochengTiaoxuchi CONDUIT   3506.87     0  02:13      4.62    1.52    1.00
  YS02001759YS02001757 CONDUIT   1382.77     0  02:12      1.76    0.98    1.00
  YS02001762YS02001759 CONDUIT    809.05     0  02:15      1.03    0.93    1.00
  YS02001765YS02001762 CONDUIT    808.43     0  02:15      1.03    0.76    1.00
  YS02001767YS02001765 CONDUIT    807.87     0  02:15      1.03    1.02    1.00
  YS02001770YS02001767 CONDUIT    806.60     0  02:15      1.03    3.19    1.00
  YS02001774YS02001770 CONDUIT    406.96     0  02:11      0.52    0.26    1.00
  YS02001779YS02001774 CONDUIT    409.16     0  02:11      0.52    0.21    1.00
  YS02001783YS02001784 CONDUIT   1160.23     0  02:12      2.31    1.60    1.00
  YS02001784YS02001785 CONDUIT   1160.65     0  02:12      2.31    2.70    1.00
  YS02001786YS02001788 CONDUIT   1161.96     0  02:12      2.48    2.24    0.89
  YS02001788YS02001790 CONDUIT   1169.41     0  02:11      2.72    0.86    0.84
  YS02001790YS02001791 CONDUIT   1287.23     0  02:14      3.43    1.40    0.70
  YS02001791YS02001793 CONDUIT   1248.00     0  02:13      6.71    0.54    0.44
  YS02001793JiankangQianchi CONDUIT   1222.20     0  02:13      2.42    0.10    0.65
  YS02001882YS02001884 CONDUIT     71.35     0  02:09      0.09    0.08    1.00
  YS02001884YS02001887 CONDUIT     77.86     0  02:07      0.11    0.10    1.00
  YS02001887YS02001890 CONDUIT    665.42     0  02:13      0.85    1.14    1.00
  YS02001890YS02001895 CONDUIT    516.97     0  02:15      0.66    0.24    1.00
  YS02001895YS02001898 CONDUIT    516.94     0  02:16      0.66    0.90    1.00
  YS02001898YS02001901 CONDUIT    517.22     0  02:15      0.66    0.33    1.00
  YS02001901YS02001904 CONDUIT    517.30     0  02:16      0.66    0.80    1.00
  YS02001904YS02001907 CONDUIT    517.47     0  02:16      0.66    0.18    1.00
  YS02001907YS02006553 CONDUIT    799.47     0  02:25      0.89    0.94    1.00
  YS02001910YS02001907 CONDUIT   1105.51     0  02:15      1.41    0.62    1.00
  YS02001915YS02001910 CONDUIT   1105.60     0  02:15      1.41    0.55    1.00
  YS02001918YS02001915 CONDUIT    461.36     0  02:10      0.59    0.25    1.00
  YS02001920YS02001918 CONDUIT    458.69     0  02:10      0.67    0.44    1.00
  YS02001923YS02001920 CONDUIT    462.83     0  02:10      0.70    0.21    1.00
  YS02001926YS02001923 CONDUIT    440.97     0  02:11      0.97    0.63    1.00
  YS02001929YS02001926 CONDUIT    400.06     0  02:11      1.15    0.19    1.00
  YS02006553YS02006556 CONDUIT    798.89     0  02:26      1.02    0.68    1.00
  YS02006556YS02006558 CONDUIT    801.74     0  02:26      1.02    0.63    1.00
  YS02006558YS02006561 CONDUIT   1178.82     0  02:10      4.17    2.61    1.00
  YS02006561YS02001783 CONDUIT   1159.62     0  02:12      2.31    0.60    1.00
  YS02163301YS02001633 CONDUIT    931.11     0  02:09      1.19    0.88    1.00
  YS02163601YS02164001 CONDUIT   1397.66     0  02:10      1.78    1.24    1.00
  YS02164001YS02001641 CONDUIT   1396.74     0  02:10      1.78    1.91    1.00
  CC-R1                PUMP       683.00     0  00:00              1.00
  CC-R2                PUMP       683.00     0  00:00              1.00
  CC-S1                PUMP       200.00     0  00:00              1.00
  CC-S2                PUMP       200.00     0  00:00              1.00
  JK-R1                PUMP      1000.00     0  00:00              1.00
  JK-R2                PUMP      1000.00     0  00:00              1.00
  JK-S                 PUMP       300.00     0  00:00              1.00
  
  
  ***************************
  Flow Classification Summary
  ***************************
  
  -------------------------------------------------------------------------------------
                      Adjusted    ---------- Fraction of Time in Flow Class ---------- 
                       /Actual         Up    Down  Sub   Sup   Up    Down  Norm  Inlet 
  Conduit               Length    Dry  Dry   Dry   Crit  Crit  Crit  Crit  Ltd   Ctrl  
  -------------------------------------------------------------------------------------
  1                       1.00   0.00  0.00  0.00  0.00  1.00  0.00  0.00  0.29  0.00
  WS02003060WS02003069    1.00   0.00  0.00  0.00  0.97  0.03  0.00  0.00  0.79  0.00
  WS02003066WSF200        1.00   0.05  0.00  0.00  0.00  0.94  0.00  0.00  0.85  0.00
  WS02003067WS02003066    1.00   0.05  0.00  0.00  0.95  0.00  0.00  0.00  0.00  0.00
  WS02003069WS02003072    1.00   0.00  0.00  0.00  0.99  0.01  0.00  0.00  0.82  0.00
  WS02003072WS02003073    1.00   0.00  0.00  0.00  0.00  0.00  0.00  1.00  0.00  0.00
  WS02004401WS02004402    1.00   0.02  0.00  0.00  0.98  0.00  0.00  0.00  0.00  0.00
  WS02004402WS02004403    1.00   0.02  0.00  0.00  0.98  0.00  0.00  0.00  0.00  0.00
  WS02004403WS02004404    1.00   0.00  0.03  0.00  0.97  0.00  0.00  0.00  0.00  0.00
  WS02004404WS02004405    1.00   0.00  0.00  0.00  1.00  0.00  0.00  0.00  0.01  0.00
  WS02004405WS02004406    1.00   0.00  0.00  0.00  1.00  0.00  0.00  0.00  0.00  0.00
  WS02004406WS02004407    1.00   0.00  0.03  0.00  0.97  0.00  0.00  0.00  0.00  0.00
  WS02004407WS02004409    1.00   0.03  0.00  0.00  0.96  0.01  0.00  0.00  0.96  0.00
  WS02004409WS02004410    1.00   0.03  0.00  0.00  0.96  0.00  0.00  0.00  0.00  0.00
  WS02004410WS02004411    1.00   0.03  0.00  0.00  0.96  0.00  0.00  0.00  0.00  0.00
  WS02004411WS02004412    1.00   0.04  0.00  0.00  0.96  0.00  0.00  0.00  0.00  0.00
  WS02004412WS02004413    1.00   0.04  0.00  0.00  0.96  0.00  0.00  0.00  0.00  0.00
  WS02004413WS02003067    1.00   0.04  0.01  0.00  0.00  0.00  0.95  0.00  0.00  0.00
  WS02006109WS02006110    1.00   0.00  0.01  0.00  0.98  0.00  0.01  0.00  0.00  0.00
  WS02006110WS02006113    1.00   0.01  0.01  0.00  0.98  0.00  0.00  0.00  0.00  0.00
  WS02006111WS02006112    1.00   0.02  0.00  0.00  0.98  0.00  0.00  0.00  0.98  0.00
  WS02006112WS02006115    1.00   0.02  0.00  0.00  0.97  0.00  0.00  0.00  0.00  0.00
  WS02006113WS02006111    1.00   0.02  0.00  0.00  0.00  0.98  0.00  0.00  0.09  0.00
  WS02006115WS02006116    1.00   0.02  0.00  0.00  0.97  0.00  0.00  0.01  0.00  0.00
  WS02006116WS02004401    1.00   0.02  0.00  0.00  0.98  0.00  0.00  0.00  0.00  0.00
  WS02006228WS02006109    1.00   0.00  0.00  0.00  1.00  0.00  0.00  0.00  0.00  0.00
  WS02006229WS02006228    1.00   0.00  0.00  0.00  0.99  0.00  0.00  0.01  0.00  0.00
  WS02006230WS02006229    1.00   0.00  0.00  0.00  0.99  0.00  0.00  0.01  0.03  0.00
  WS02006231WS02006230    1.00   0.00  0.00  0.00  0.18  0.00  0.82  0.00  0.00  0.00
  WS02006232WS02006231    1.00   0.00  0.00  0.00  0.99  0.00  0.01  0.00  0.00  0.00
  WS02006234WS02006232    1.00   0.00  0.00  0.00  1.00  0.00  0.00  0.00  0.05  0.00
  WS02006235WS02006234    1.00   0.00  0.00  0.00  0.85  0.00  0.15  0.00  0.00  0.00
  WS02006238WS02006235    1.00   0.00  0.00  0.00  1.00  0.00  0.00  0.00  0.00  0.00
  WS02006239WS02006238    1.00   0.00  0.00  0.00  1.00  0.00  0.00  0.00  0.21  0.00
  WS02006240WS02006239    1.00   0.00  0.00  0.00  0.62  0.00  0.00  0.38  0.04  0.00
  WS02006242WS02006240    1.00   0.00  0.00  0.00  0.99  0.00  0.01  0.00  0.00  0.00
  WS02006243WS02006242    1.00   0.00  0.00  0.00  0.99  0.00  0.00  0.01  0.67  0.00
  WS02006245WS02006243    1.00   0.00  0.00  0.00  0.71  0.00  0.00  0.29  0.01  0.00
  WS02006247WS02006245    1.00   0.00  0.00  0.00  0.96  0.00  0.00  0.04  0.00  0.00
  WS02006248WS02006247    1.00   0.00  0.00  0.00  0.98  0.00  0.00  0.02  0.54  0.00
  WS02006249WS02006248    1.00   0.00  0.00  0.00  0.37  0.00  0.63  0.00  0.00  0.00
  WS02006251WS02006249    1.00   0.00  0.00  0.00  0.99  0.01  0.00  0.00  0.64  0.00
  WS02006252WS02006251    1.00   0.15  0.49  0.00  0.09  0.00  0.28  0.00  0.00  0.00
  WS02006256WS02006235    1.00   0.00  0.00  0.00  0.98  0.02  0.00  0.00  0.00  0.00
  WSF200WS02003060        1.00   0.00  0.06  0.00  0.49  0.46  0.00  0.00  0.72  0.00
  YS02001580YS02001583    1.00   0.26  0.57  0.00  0.16  0.00  0.00  0.00  0.66  0.00
  YS02001583YS02001586    1.00   0.43  0.35  0.00  0.22  0.00  0.00  0.00  0.67  0.00
  YS02001586YS02001590    1.00   0.13  0.00  0.00  0.41  0.05  0.00  0.42  0.37  0.00
  YS02001590YS02001593    1.00   0.13  0.01  0.00  0.09  0.00  0.78  0.00  0.00  0.00
  YS02001593YS02001596    1.00   0.14  0.00  0.00  0.10  0.01  0.00  0.75  0.02  0.00
  YS02001596YS02001600    1.00   0.14  0.00  0.00  0.16  0.01  0.00  0.68  0.05  0.00
  YS02001600YS02001601    1.00   0.13  0.01  0.00  0.86  0.00  0.00  0.00  0.63  0.00
  YS02001601YS02001602    1.00   0.13  0.01  0.00  0.86  0.00  0.00  0.00  0.00  0.00
  YS02001602YS02001605    1.00   0.14  0.00  0.00  0.86  0.00  0.00  0.00  0.00  0.00
  YS02001605YS02001607    1.00   0.14  0.00  0.00  0.86  0.00  0.00  0.00  0.00  0.00
  YS02001607YS02001610    1.00   0.13  0.01  0.00  0.86  0.00  0.00  0.00  0.02  0.00
  YS02001610YS02001613    1.00   0.13  0.00  0.00  0.87  0.00  0.00  0.00  0.01  0.00
  YS02001613YS02001616    1.00   0.13  0.00  0.00  0.87  0.00  0.00  0.00  0.01  0.00
  YS02001616YS02001619    1.00   0.13  0.00  0.00  0.87  0.00  0.00  0.00  0.00  0.00
  YS02001619YS02001622    1.00   0.13  0.00  0.00  0.87  0.00  0.00  0.00  0.29  0.00
  YS02001622YS02001625    1.00   0.13  0.00  0.00  0.87  0.00  0.00  0.00  0.06  0.00
  YS02001625YS02001629    1.00   0.13  0.06  0.00  0.12  0.00  0.69  0.00  0.00  0.00
  YS02001629YS02163301    1.00   0.17  0.01  0.00  0.82  0.00  0.00  0.00  0.00  0.00
  YS02001633YS02163601    1.00   0.00  0.01  0.00  0.99  0.00  0.00  0.00  0.15  0.00
  YS02001641YS02001644    1.00   0.00  0.01  0.00  0.99  0.00  0.00  0.00  0.00  0.00
  YS02001644YS02001647    1.00   0.00  0.19  0.00  0.81  0.00  0.00  0.00  0.00  0.00
  YS02001647YS02001649    1.00   0.00  0.19  0.00  0.49  0.32  0.00  0.00  0.58  0.00
  YS02001649YS02001757    1.00   0.00  0.00  0.00  0.66  0.34  0.00  0.00  0.50  0.00
  YS02001652YS02001649    1.00   0.00  0.00  0.00  0.95  0.05  0.00  0.00  0.78  0.00
  YS02001655YS02001652    1.00   0.00  0.00  0.00  0.14  0.01  0.00  0.84  0.06  0.00
  YS02001658YS02001655    1.00   0.00  0.15  0.00  0.62  0.23  0.00  0.00  0.73  0.00
  YS02001661YS02001658    1.00   0.15  0.00  0.00  0.46  0.39  0.00  0.00  0.73  0.00
  YS02001664YS02001661    1.00   0.13  0.00  0.00  0.77  0.10  0.00  0.00  0.86  0.00
  YS02001745YS02001748    1.00   0.00  0.00  0.00  0.05  0.01  0.00  0.94  0.04  0.00
  YS02001748YS02001751    1.00   0.00  0.00  0.00  0.80  0.20  0.00  0.00  0.79  0.00
  YS02001751YS02001754    1.00   0.00  0.00  0.00  0.10  0.01  0.00  0.89  0.02  0.00
  YS02001754YS02001757    1.00   0.00  0.00  0.00  1.00  0.00  0.00  0.00  0.88  0.00
  YS02001757CaochengTiaoxuchi    1.00   0.00  0.00  0.00  0.95  0.05  0.00  0.00  0.85  0.00
  YS02001759YS02001757    1.00   0.00  0.00  0.00  1.00  0.00  0.00  0.00  0.63  0.00
  YS02001762YS02001759    1.00   0.00  0.00  0.00  1.00  0.00  0.00  0.00  0.06  0.00
  YS02001765YS02001762    1.00   0.00  0.00  0.00  1.00  0.00  0.00  0.00  0.77  0.00
  YS02001767YS02001765    1.00   0.00  0.00  0.00  1.00  0.00  0.00  0.00  0.00  0.00
  YS02001770YS02001767    1.00   0.00  0.00  0.00  1.00  0.00  0.00  0.00  0.00  0.00
  YS02001774YS02001770    1.00   0.00  0.14  0.00  0.69  0.00  0.17  0.00  0.04  0.00
  YS02001779YS02001774    1.00   0.00  0.00  0.00  1.00  0.00  0.00  0.00  0.82  0.00
  YS02001783YS02001784    1.00   0.00  0.20  0.00  0.80  0.00  0.00  0.00  0.56  0.00
  YS02001784YS02001785    1.00   0.00  0.00  0.00  1.00  0.00  0.00  0.00  0.19  0.00
  YS02001786YS02001788    1.00   0.00  0.00  0.00  0.80  0.20  0.00  0.00  0.00  0.00
  YS02001788YS02001790    1.00   0.00  0.00  0.00  0.22  0.78  0.00  0.00  0.83  0.00
  YS02001790YS02001791    1.00   0.00  0.00  0.00  0.01  0.99  0.00  0.00  0.15  0.00
  YS02001791YS02001793    1.00   0.00  0.00  0.00  0.00  1.00  0.00  0.00  0.01  0.00
  YS02001793JiankangQianchi    1.00   0.00  0.00  0.00  0.99  0.01  0.00  0.00  0.97  0.00
  YS02001882YS02001884    1.00   0.16  0.01  0.00  0.83  0.00  0.00  0.00  0.00  0.00
  YS02001884YS02001887    1.00   0.06  0.05  0.00  0.89  0.00  0.00  0.00  0.00  0.00
  YS02001887YS02001890    1.00   0.00  0.00  0.00  0.97  0.00  0.03  0.00  0.00  0.00
  YS02001890YS02001895    1.00   0.00  0.18  0.00  0.82  0.00  0.00  0.00  0.00  0.00
  YS02001895YS02001898    1.00   0.18  0.00  0.00  0.80  0.00  0.02  0.00  0.00  0.00
  YS02001898YS02001901    1.00   0.18  0.00  0.00  0.82  0.00  0.00  0.00  0.01  0.00
  YS02001901YS02001904    1.00   0.18  0.00  0.00  0.82  0.00  0.00  0.00  0.00  0.00
  YS02001904YS02001907    1.00   0.00  0.17  0.00  0.82  0.00  0.00  0.00  0.00  0.00
  YS02001907YS02006553    1.00   0.00  0.02  0.00  0.98  0.00  0.00  0.00  0.00  0.00
  YS02001910YS02001907    1.00   0.00  0.00  0.00  0.97  0.00  0.00  0.03  0.12  0.00
  YS02001915YS02001910    1.00   0.00  0.00  0.00  0.96  0.04  0.00  0.00  0.18  0.00
  YS02001918YS02001915    1.00   0.00  0.01  0.00  0.98  0.02  0.00  0.00  0.77  0.00
  YS02001920YS02001918    1.00   0.00  0.01  0.00  0.99  0.00  0.00  0.00  0.00  0.00
  YS02001923YS02001920    1.00   0.00  0.00  0.00  1.00  0.00  0.00  0.00  0.94  0.00
  YS02001926YS02001923    1.00   0.00  0.07  0.00  0.04  0.00  0.88  0.00  0.00  0.00
  YS02001929YS02001926    1.00   0.00  0.13  0.00  0.87  0.00  0.00  0.00  0.84  0.00
  YS02006553YS02006556    1.00   0.01  0.00  0.00  0.99  0.00  0.00  0.00  0.03  0.00
  YS02006556YS02006558    1.00   0.00  0.00  0.00  1.00  0.00  0.00  0.00  0.00  0.00
  YS02006558YS02006561    1.00   0.20  0.00  0.00  0.04  0.76  0.00  0.00  0.19  0.00
  YS02006561YS02001783    1.00   0.20  0.00  0.00  0.07  0.74  0.00  0.00  0.70  0.00
  YS02163301YS02001633    1.00   0.00  0.16  0.00  0.84  0.00  0.00  0.00  0.00  0.00
  YS02163601YS02164001    1.00   0.00  0.08  0.00  0.92  0.00  0.00  0.00  0.00  0.00
  YS02164001YS02001641    1.00   0.01  0.07  0.00  0.92  0.00  0.00  0.00  0.06  0.00
  
  
  *************************
  Conduit Surcharge Summary
  *************************
  
  ----------------------------------------------------------------------------
                                                           Hours        Hours 
                         --------- Hours Full --------   Above Full   Capacity
  Conduit                Both Ends  Upstream  Dnstream   Normal Flow   Limited
  ----------------------------------------------------------------------------
  WS02003072WS02003073        0.01      0.01      0.01      0.97         0.01
  WS02004403WS02004404        0.01      0.01      0.01      0.01         0.01
  WS02004404WS02004405        0.01      0.01      0.01      2.25         0.01
  WS02004405WS02004406        0.01      0.01      0.01      0.56         0.01
  WS02006109WS02006110        0.56      0.56      1.24      0.64         0.01
  WS02006110WS02006113        0.01      0.01      1.21      0.01         0.01
  WS02006111WS02006112        0.01      0.01      1.57      0.01         0.01
  WS02006112WS02006115        0.01      0.01      0.73      0.01         0.01
  WS02006228WS02006109        1.17      1.25      1.17      1.78         1.17
  WS02006229WS02006228        1.17      1.18      1.17      1.57         1.16
  WS02006230WS02006229        1.37      1.51      1.37      3.07         1.37
  WS02006231WS02006230        0.57      0.57      0.70      2.46         0.01
  WS02006232WS02006231        0.66      0.66      1.24      0.72         0.01
  WS02006234WS02006232        1.11      1.11      1.24      0.70         0.70
  WS02006235WS02006234        0.94      0.95      1.14      2.26         0.02
  WS02006238WS02006235        1.16      1.16      1.24      0.01         0.01
  WS02006239WS02006238        1.17      1.20      1.19      1.29         0.98
  WS02006240WS02006239        1.14      1.17      1.15      1.28         0.93
  WS02006242WS02006240        1.16      1.16      1.29      1.41         0.01
  WS02006243WS02006242        1.14      1.14      1.22      0.01         0.03
  WS02006245WS02006243        1.11      1.11      1.12      0.68         0.56
  WS02006247WS02006245        1.11      1.11      1.11      1.90         1.10
  WS02006248WS02006247        1.09      1.09      1.11      0.01         0.04
  WS02006249WS02006248        1.09      1.09      1.09      1.82         0.01
  WS02006251WS02006249        1.08      1.08      1.09      1.34         1.03
  WS02006252WS02006251        1.41      1.41      1.43      1.41         0.01
  WS02006256WS02006235        2.27      2.33      6.48      1.30         0.01
  YS02001580YS02001583        0.41      0.41      0.45      0.01         0.01
  YS02001583YS02001586        0.42      0.42      0.52      0.01         0.01
  YS02001586YS02001590        0.53      0.53      0.58      0.01         0.01
  YS02001590YS02001593        0.58      0.58      0.60      0.61         0.01
  YS02001593YS02001596        0.59      0.59      0.68      0.01         0.01
  YS02001596YS02001600        0.72      0.72      0.80      0.01         0.01
  YS02001600YS02001601        0.86      0.86      1.14      0.01         0.01
  YS02001601YS02001602        1.03      1.03      1.18      0.82         0.01
  YS02001602YS02001605        0.97      0.97      1.03      2.02         0.01
  YS02001605YS02001607        0.93      0.97      0.93      1.11         0.93
  YS02001607YS02001610        0.54      0.54      0.56      0.01         0.01
  YS02001610YS02001613        0.54      0.54      0.56      0.01         0.01
  YS02001613YS02001616        0.50      0.50      0.54      0.01         0.01
  YS02001616YS02001619        0.49      0.49      0.50      0.01         0.01
  YS02001619YS02001622        0.48      0.49      0.48      0.62         0.46
  YS02001622YS02001625        0.48      0.48      0.64      0.01         0.01
  YS02001625YS02001629        0.44      0.44      0.64      0.01         0.01
  YS02001629YS02163301        0.62      0.62      0.63      0.23         0.22
  YS02001633YS02163601        0.65      0.65      0.67      0.36         0.36
  YS02001641YS02001644        0.54      0.58      0.54      1.22         0.54
  YS02001644YS02001647        0.36      0.36      0.54      0.04         0.01
  YS02001647YS02001649        0.36      0.36      0.45      0.01         0.01
  YS02001649YS02001757        0.44      0.45      0.48      0.30         0.24
  YS02001652YS02001649        0.31      0.31      0.45      0.01         0.01
  YS02001655YS02001652        0.18      0.18      0.28      0.01         0.01
  YS02001658YS02001655        0.08      0.08      0.18      0.01         0.01
  YS02001661YS02001658        0.01      0.01      0.08      0.01         0.01
  YS02001664YS02001661        0.01      0.01      0.02      0.01         0.01
  YS02001745YS02001748        0.01      0.01      0.01      0.01         0.01
  YS02001748YS02001751        0.05      0.05      0.11      0.01         0.01
  YS02001751YS02001754        0.11      0.11      0.19      0.01         0.01
  YS02001754YS02001757        0.22      0.22      0.48      0.01         0.01
  YS02001757CaochengTiaoxuchi        0.37      0.48      0.93      0.30         0.15
  YS02001759YS02001757        0.39      0.39      0.48      0.01         0.02
  YS02001762YS02001759        0.36      0.36      0.39      0.01         0.03
  YS02001765YS02001762        0.33      0.33      0.36      0.01         0.01
  YS02001767YS02001765        0.31      0.31      0.33      0.01         0.03
  YS02001770YS02001767        0.30      0.30      0.31      0.40         0.24
  YS02001774YS02001770        0.29      0.29      0.35      0.01         0.01
  YS02001779YS02001774        0.21      0.21      0.35      0.01         0.01
  YS02001783YS02001784        0.37      0.39      0.37      0.52         0.37
  YS02001784YS02001785        0.28      0.37      0.28      0.70         0.28
  YS02001786YS02001788        0.01      0.28      0.01      0.60         0.01
  YS02001790YS02001791        0.01      0.01      0.01      0.36         0.01
  YS02001793JiankangQianchi        0.01      0.01      6.42      0.01         0.01
  YS02001882YS02001884        0.35      0.35      0.36      0.01         0.01
  YS02001884YS02001887        0.38      0.38      0.39      0.01         0.01
  YS02001887YS02001890        0.40      0.40      0.41      0.06         0.01
  YS02001890YS02001895        0.34      0.34      0.42      0.01         0.01
  YS02001895YS02001898        0.33      0.33      0.34      0.01         0.01
  YS02001898YS02001901        0.34      0.34      0.38      0.01         0.01
  YS02001901YS02001904        0.37      0.37      0.38      0.01         0.01
  YS02001904YS02001907        0.37      0.37      0.59      0.01         0.01
  YS02001907YS02006553        0.71      0.71      0.77      0.01         0.01
  YS02001910YS02001907        0.42      0.42      0.58      0.01         0.01
  YS02001915YS02001910        0.35      0.35      0.42      0.01         0.01
  YS02001918YS02001915        0.27      0.27      0.35      0.01         0.01
  YS02001920YS02001918        0.27      0.27      0.29      0.01         0.01
  YS02001923YS02001920        0.23      0.23      0.29      0.01         0.01
  YS02001926YS02001923        0.01      0.01      0.03      0.01         0.01
  YS02001929YS02001926        0.01      0.01      0.03      0.01         0.01
  YS02006553YS02006556        0.50      0.50      0.59      0.01         0.01
  YS02006556YS02006558        0.54      0.54      0.60      0.01         0.01
  YS02006558YS02006561        0.31      0.49      0.31      0.67         0.31
  YS02006561YS02001783        0.24      0.24      0.39      0.01         0.01
  YS02163301YS02001633        0.63      0.63      0.66      0.01         0.01
  YS02163601YS02164001        0.59      0.59      0.67      0.13         0.01
  YS02164001YS02001641        0.58      0.59      0.58      0.61         0.49
  
  
  ***************
  Pumping Summary
  ***************
  
  ---------------------------------------------------------------------------------------------------------
                                                  Min       Avg       Max     Total     Power    % Time Off
                        Percent   Number of      Flow      Flow      Flow    Volume     Usage    Pump Curve
  Pump                 Utilized   Start-Ups       LPS       LPS       LPS  10^6 ltr     Kw-hr    Low   High
  ---------------------------------------------------------------------------------------------------------
  CC-R1                   18.55          23      0.00    683.00    683.00     3.649     65.01    0.0   42.4
  CC-R2                   16.74          28      0.00    683.00    683.00     3.292     57.90    0.0   54.4
  CC-S1                   21.60          18      0.00    200.00    200.00     1.244      7.88    0.0    0.0
  CC-S2                   22.22          24      0.00    200.00    200.00     1.280      8.18    0.0    0.0
  JK-R1                    5.35          18      0.00   1000.00   1000.00     1.542     17.65    0.0    0.0
  JK-R2                    1.65          11      0.00   1000.00   1000.00     0.476      4.44    0.0    0.0
  JK-S                    15.73          41      0.00    300.00    300.00     1.359     22.62    0.0    0.0
  

  Analysis begun on:  Mon Dec 30 10:18:27 2024
  Analysis ended on:  Mon Dec 30 10:18:29 2024
  Total elapsed time: 00:00:02