
  EPA STORM WATER MANAGEMENT MODEL - VERSION 5.2 (Build 5.2.4)
  PYSWMM TOOLKIT API - VERSION v1.0 (2023-11-27)
  ------------------------------------------------------------

  WARNING 04: minimum elevation drop used for Conduit WS02004404WS02004405
  WARNING 03: negative offset ignored for Link YS02001904YS02001907
  
  ****************
  Analysis Options
  ****************
  Flow Units ............... LPS
  Process Models:
    Rainfall/Runoff ........ YES
    RDII ................... NO
    Snowmelt ............... NO
    Groundwater ............ NO
    Flow Routing ........... YES
    Ponding Allowed ........ NO
    Water Quality .......... NO
  Infiltration Method ...... HORTON
  Flow Routing Method ...... DYNWAVE
  Surcharge Method ......... EXTRAN
  Starting Date ............ 08/28/2015 08:00:00
  Ending Date .............. 08/28/2015 16:00:00
  Antecedent Dry Days ...... 8.0
  Report Time Step ......... 00:01:00
  Wet Time Step ............ 00:01:00
  Dry Time Step ............ 00:01:00
  Routing Time Step ........ 30.00 sec
  Variable Time Step ....... YES
  Maximum Trials ........... 8
  Number of Threads ........ 4
  Head Tolerance ........... 0.001500 m
  
  
  **************************        Volume         Depth
  Runoff Quantity Continuity     hectare-m            mm
  **************************     ---------       -------
  Total Precipitation ......         2.669        80.469
  Evaporation Loss .........         0.000         0.000
  Infiltration Loss ........         0.102         3.079
  Surface Runoff ...........         2.535        76.411
  Final Storage ............         0.033         0.996
  Continuity Error (%) .....        -0.020
  
  
  **************************        Volume        Volume
  Flow Routing Continuity        hectare-m      10^6 ltr
  **************************     ---------     ---------
  Dry Weather Inflow .......         0.025         0.251
  Wet Weather Inflow .......         2.534        25.345
  Groundwater Inflow .......         0.000         0.000
  RDII Inflow ..............         0.000         0.000
  External Inflow ..........         0.083         0.834
  External Outflow .........         1.910        19.096
  Flooding Loss ............         0.804         8.040
  Evaporation Loss .........         0.000         0.000
  Exfiltration Loss ........         0.000         0.000
  Initial Stored Volume ....         0.243         2.431
  Final Stored Volume ......         0.182         1.820
  Continuity Error (%) .....        -0.331
  
  
  *************************
  Highest Continuity Errors
  *************************
  Node YS02001583 (-12.99%)
  Node YS02001884 (4.68%)
  Node WS02006256 (-3.13%)
  
  
  ***************************
  Time-Step Critical Elements
  ***************************
  Link WS02006238WS02006235 (22.44%)
  Link WS02006252WS02006251 (18.37%)
  Link WS02004404WS02004405 (17.66%)
  Link YS02001791YS02001793 (11.33%)
  Link WS02006235WS02006234 (9.66%)
  
  
  ********************************
  Highest Flow Instability Indexes
  ********************************
  Link WS02006113WS02006111 (40)
  Link WS02006252WS02006251 (26)
  Link WS02006111WS02006112 (25)
  Link WS02006256WS02006235 (23)
  Link WS02006238WS02006235 (23)
  
  
  *********************************
  Most Frequent Nonconverging Nodes
  *********************************
  Node CC-1 (18.50%)
  Node CC-2 (18.50%)
  Node JK-1 (18.50%)
  Node JK-2 (18.50%)
  Node WSC (18.50%)
  
  
  *************************
  Routing Time Step Summary
  *************************
  Minimum Time Step           :     0.00 sec
  Average Time Step           :     2.73 sec
  Maximum Time Step           :     6.43 sec
  % of Time in Steady State   :     0.00
  Average Iterations per Step :     3.75
  % of Steps Not Converging   :    18.50
  Time Step Frequencies       :
     30.000 - 13.228 sec      :     0.00 %
     13.228 -  5.833 sec      :    11.82 %
      5.833 -  2.572 sec      :    29.50 %
      2.572 -  1.134 sec      :    34.50 %
      1.134 -  0.500 sec      :    24.18 %
  
  
  ***************************
  Subcatchment Runoff Summary
  ***************************
  
  ------------------------------------------------------------------------------------------------------------------------------
                            Total      Total      Total      Total     Imperv       Perv      Total       Total     Peak  Runoff
                           Precip      Runon       Evap      Infil     Runoff     Runoff     Runoff      Runoff   Runoff   Coeff
  Subcatchment                 mm         mm         mm         mm         mm         mm         mm    10^6 ltr      LPS
  ------------------------------------------------------------------------------------------------------------------------------
  sub60                     80.47       0.00       0.00       1.87      69.61       7.79      77.40        1.02   566.00   0.962
  sub61                     80.47       0.00       0.00       2.71      65.66      10.98      76.64        1.41   782.16   0.952
  sub62                     80.47       0.00       0.00       1.25      72.75       5.19      77.94        2.14  1102.98   0.969
  sub63                     80.47       0.00       0.00       4.97      56.17      18.37      74.54        1.69   865.12   0.926
  sub64                     80.47       0.00       0.00       2.52      67.19       9.56      76.75        1.84   896.88   0.954
  sub65                     80.47       0.00       0.00       2.18      68.76       8.29      77.04        2.12  1002.26   0.957
  sub66                     80.47       0.00       0.00       6.07      56.06      17.26      73.32        3.42  1307.90   0.911
  sub67                     80.47       0.00       0.00       1.20      72.79       5.24      78.03        1.45   852.11   0.970
  sub68                     80.47       0.00       0.00       2.24      68.02       9.03      77.05        2.12  1129.39   0.957
  sub69                     80.47       0.00       0.00       2.00      68.29      10.07      78.36        2.90  1339.99   0.974
  sub70                     80.47       0.00       0.00       6.56      52.95      20.80      73.75        2.13   739.79   0.917
  sub71                     80.47       0.00       0.00       1.28      72.71       5.16      77.87        2.04   972.88   0.968
  sub72                     80.47       0.00       0.00       1.13      73.43       4.50      77.93        1.07   470.84   0.968
  
  
  ******************
  Node Depth Summary
  ******************
  
  ---------------------------------------------------------------------------------
                                 Average  Maximum  Maximum  Time of Max    Reported
                                   Depth    Depth      HGL   Occurrence   Max Depth
  Node                 Type       Meters   Meters   Meters  days hr:min      Meters
  ---------------------------------------------------------------------------------
  WS02003060           JUNCTION     0.22     0.38     5.31     0  01:54        0.38
  WS02003066           JUNCTION     0.18     0.29     5.85     0  01:53        0.29
  WS02003067           JUNCTION     0.47     0.69     6.01     0  01:53        0.69
  WS02003069           JUNCTION     0.24     0.42     5.01     0  01:54        0.42
  WS02003072           JUNCTION     0.30     0.49     4.86     0  01:55        0.49
  WS02003073           JUNCTION     0.17     0.29     4.36     0  01:56        0.29
  WS02004401           JUNCTION     0.56     0.87     6.87     0  01:50        0.87
  WS02004402           JUNCTION     0.59     0.89     6.85     0  01:51        0.89
  WS02004403           JUNCTION     0.61     0.91     6.84     0  01:51        0.91
  WS02004404           JUNCTION     0.69     1.00     6.85     0  01:51        0.99
  WS02004405           JUNCTION     0.67     0.96     6.81     0  01:51        0.95
  WS02004406           JUNCTION     0.69     0.95     6.78     0  01:51        0.95
  WS02004407           JUNCTION     0.16     0.29     6.61     0  01:51        0.29
  WS02004409           JUNCTION     0.36     0.65     6.42     0  01:52        0.65
  WS02004410           JUNCTION     0.39     0.67     6.39     0  01:52        0.66
  WS02004411           JUNCTION     0.41     0.68     6.36     0  01:52        0.68
  WS02004412           JUNCTION     0.43     0.68     6.32     0  01:53        0.68
  WS02004413           JUNCTION     0.58     0.85     6.32     0  01:53        0.85
  WS02006109           JUNCTION     0.62     1.14     7.76     0  02:05        1.02
  WS02006110           JUNCTION     0.62     1.16     7.74     0  02:05        1.04
  WS02006111           JUNCTION     0.16     0.29     6.99     0  02:38        0.29
  WS02006112           JUNCTION     0.71     1.09     6.97     0  01:54        1.06
  WS02006113           JUNCTION     0.25     0.46     7.35     0  03:08        0.46
  WS02006115           JUNCTION     0.45     0.76     6.90     0  01:50        0.76
  WS02006116           JUNCTION     0.53     0.84     6.88     0  01:50        0.84
  WS02006228           JUNCTION     0.62     1.32     7.98     0  02:05        1.03
  WS02006229           JUNCTION     0.59     1.39     8.08     0  02:05        1.09
  WS02006230           JUNCTION     0.60     1.67     8.42     0  02:05        1.18
  WS02006231           JUNCTION     0.41     1.27     8.39     0  02:05        0.94
  WS02006232           JUNCTION     0.54     1.49     8.53     0  02:15        1.16
  WS02006234           JUNCTION     0.47     1.64     8.80     0  02:15        1.19
  WS02006235           JUNCTION     0.51     1.72     8.89     0  02:15        1.30
  WS02006238           JUNCTION     0.54     1.77     8.91     0  02:15        1.35
  WS02006239           JUNCTION     0.51     1.74     8.95     0  02:15        1.37
  WS02006240           JUNCTION     0.48     1.64     8.93     0  02:15        1.35
  WS02006242           JUNCTION     0.55     1.55     8.82     0  02:15        1.41
  WS02006243           JUNCTION     0.47     1.39     8.81     0  02:15        1.27
  WS02006245           JUNCTION     0.48     1.30     8.78     0  02:15        1.20
  WS02006247           JUNCTION     0.50     1.25     8.75     0  02:15        1.19
  WS02006248           JUNCTION     0.46     1.10     8.69     0  02:05        1.10
  WS02006249           JUNCTION     0.49     1.09     8.69     0  01:40        1.09
  WS02006251           JUNCTION     0.49     1.41     9.08     0  01:40        1.15
  WS02006252           JUNCTION     0.34     1.50     9.74     0  00:00        0.71
  WS02006256           JUNCTION     0.96     2.35     9.28     0  00:00        2.35
  WSF200               JUNCTION     0.15     0.29     5.52     0  01:53        0.28
  YS02001580           JUNCTION     0.16     1.05     9.59     0  01:33        0.77
  YS02001583           JUNCTION     0.20     1.14     9.64     0  01:33        0.82
  YS02001586           JUNCTION     0.30     1.13     9.30     0  01:33        1.13
  YS02001590           JUNCTION     0.41     1.40     9.26     0  01:33        1.39
  YS02001593           JUNCTION     0.35     1.36     9.22     0  01:33        1.30
  YS02001596           JUNCTION     0.47     1.70     9.12     0  01:33        1.65
  YS02001600           JUNCTION     0.56     1.87     9.00     0  01:33        1.86
  YS02001601           JUNCTION     0.74     2.06     8.90     0  01:32        2.06
  YS02001602           JUNCTION     0.64     1.87     8.77     0  01:33        1.87
  YS02001605           JUNCTION     0.60     1.78     8.68     0  01:33        1.78
  YS02001607           JUNCTION     0.57     1.68     8.53     0  02:24        1.68
  YS02001610           JUNCTION     0.61     1.68     8.48     0  01:33        1.68
  YS02001613           JUNCTION     0.57     1.70     8.54     0  02:24        1.70
  YS02001616           JUNCTION     0.51     1.61     8.52     0  01:37        1.61
  YS02001619           JUNCTION     0.49     1.61     8.54     0  01:37        1.61
  YS02001622           JUNCTION     0.48     1.61     8.51     0  02:24        1.61
  YS02001625           JUNCTION     0.72     1.78     8.38     0  01:33        1.78
  YS02001629           JUNCTION     0.62     1.85     8.40     0  01:33        1.85
  YS02001633           JUNCTION     0.69     2.08     8.53     0  01:35        2.05
  YS02001641           JUNCTION     0.66     1.99     8.43     0  01:36        1.97
  YS02001644           JUNCTION     0.65     1.92     8.35     0  01:36        1.92
  YS02001647           JUNCTION     0.45     1.81     8.42     0  01:37        1.80
  YS02001649           JUNCTION     0.51     2.05     8.44     0  01:36        2.05
  YS02001652           JUNCTION     0.39     2.16     8.76     0  01:36        2.16
  YS02001655           JUNCTION     0.31     2.20     9.05     0  01:36        2.20
  YS02001658           JUNCTION     0.22     2.30     9.44     0  01:36        2.30
  YS02001661           JUNCTION     0.20     2.46     9.86     0  01:36        1.20
  YS02001664           JUNCTION     0.08     1.68     9.61     0  01:37        0.54
  YS02001745           JUNCTION     0.10     2.35     9.87     0  01:36        1.98
  YS02001748           JUNCTION     0.21     2.27     9.35     0  01:36        2.27
  YS02001751           JUNCTION     0.26     2.20     9.08     0  01:36        2.20
  YS02001754           JUNCTION     0.35     2.20     8.81     0  01:36        2.18
  YS02001757           JUNCTION     0.53     2.21     8.47     0  01:36        2.21
  YS02001759           JUNCTION     0.47     2.20     8.57     0  01:36        2.18
  YS02001762           JUNCTION     0.46     2.15     8.55     0  01:36        2.10
  YS02001765           JUNCTION     0.44     2.10     8.55     0  01:36        2.03
  YS02001767           JUNCTION     0.44     2.03     8.52     0  01:35        1.97
  YS02001770           JUNCTION     0.44     1.95     8.44     0  01:35        1.95
  YS02001774           JUNCTION     0.51     2.05     8.47     0  01:35        1.99
  YS02001779           JUNCTION     0.34     1.68     8.37     0  01:35        1.68
  YS02001783           JUNCTION     0.33     1.70     7.84     0  01:35        1.24
  YS02001784           JUNCTION     0.33     1.38     7.45     0  01:35        1.11
  YS02001786           JUNCTION     0.27     1.09     7.12     0  01:35        0.87
  YS02001788           JUNCTION     0.20     0.62     6.60     0  01:39        0.62
  YS02001790           JUNCTION     0.23     0.72     6.37     0  01:43        0.72
  YS02001791           JUNCTION     0.15     0.44     5.91     0  01:38        0.43
  YS02001793           JUNCTION     0.08     0.30     5.13     0  01:53        0.27
  YS02001882           JUNCTION     0.41     1.83     8.55     0  01:35        1.83
  YS02001884           JUNCTION     0.50     1.93     8.55     0  01:35        1.93
  YS02001887           JUNCTION     0.57     1.96     8.50     0  01:35        1.96
  YS02001890           JUNCTION     0.60     1.81     8.32     0  01:34        1.81
  YS02001895           JUNCTION     0.38     1.64     8.38     0  01:35        1.64
  YS02001898           JUNCTION     0.39     1.66     8.39     0  01:35        1.66
  YS02001901           JUNCTION     0.49     1.74     8.35     0  01:35        1.74
  YS02001904           JUNCTION     0.47     1.66     8.29     0  01:35        1.66
  YS02001907           JUNCTION     0.78     1.96     8.25     0  01:35        1.96
  YS02001910           JUNCTION     0.59     1.99     8.49     0  01:35        1.95
  YS02001915           JUNCTION     0.42     1.94     8.66     0  01:35        1.90
  YS02001918           JUNCTION     0.25     1.81     8.88     0  01:35        1.81
  YS02001920           JUNCTION     0.33     2.12     9.13     0  01:35        2.04
  YS02001923           JUNCTION     0.20     2.03     9.29     0  01:35        1.93
  YS02001926           JUNCTION     0.22     1.90     9.35     0  01:35        1.90
  YS02001929           JUNCTION     0.14     1.78     9.47     0  01:35        1.65
  YS02006553           JUNCTION     0.78     2.11     8.39     0  01:35        1.98
  YS02006556           JUNCTION     0.75     2.24     8.56     0  01:35        1.99
  YS02006558           JUNCTION     0.80     2.33     8.59     0  01:35        2.05
  YS02006561           JUNCTION     0.21     1.58     8.24     0  01:35        0.90
  YS02163301           JUNCTION     0.64     1.97     8.49     0  01:35        1.94
  YS02163601           JUNCTION     0.72     2.08     8.48     0  01:35        2.05
  YS02164001           JUNCTION     0.65     2.01     8.47     0  01:36        1.97
  CC-1                 OUTFALL      0.00     0.00     0.00     0  00:00        0.00
  CC-2                 OUTFALL      0.00     0.00     0.00     0  00:00        0.00
  JK-1                 OUTFALL      0.00     0.00     0.00     0  00:00        0.00
  JK-2                 OUTFALL      0.00     0.00     0.00     0  00:00        0.00
  WSC                  OUTFALL      0.17     0.29     0.96     0  01:56        0.29
  CC-storage           STORAGE      0.89     1.70     7.20     0  02:22        1.70
  JK-storage           STORAGE      1.57     4.22     5.02     0  01:52        4.21
  
  
  *******************
  Node Inflow Summary
  *******************
  
  -------------------------------------------------------------------------------------------------
                                  Maximum  Maximum                  Lateral       Total        Flow
                                  Lateral    Total  Time of Max      Inflow      Inflow     Balance
                                   Inflow   Inflow   Occurrence      Volume      Volume       Error
  Node                 Type           LPS      LPS  days hr:min    10^6 ltr    10^6 ltr     Percent
  -------------------------------------------------------------------------------------------------
  WS02003060           JUNCTION     16.53   532.35     0  01:53       0.476        4.99       0.045
  WS02003066           JUNCTION      0.00   514.79     0  01:53           0        4.51       0.031
  WS02003067           JUNCTION      0.00   514.37     0  01:53           0        4.52       0.093
  WS02003069           JUNCTION      0.32   532.67     0  01:54     0.00922        4.99       0.080
  WS02003072           JUNCTION      0.00   531.50     0  01:54           0        4.99       0.142
  WS02003073           JUNCTION      1.82   532.41     0  01:55      0.0524        5.04       0.111
  WS02004401           JUNCTION      0.00   535.03     0  01:50           0        4.62       0.225
  WS02004402           JUNCTION      0.00   533.44     0  01:50           0        4.61       0.228
  WS02004403           JUNCTION      0.00   531.92     0  01:50           0         4.6       0.221
  WS02004404           JUNCTION      0.16   546.31     0  01:51     0.00467        4.59       0.170
  WS02004405           JUNCTION      0.04   594.55     0  01:51      0.0011        4.59       0.247
  WS02004406           JUNCTION      0.00   534.33     0  01:51           0        4.57       0.459
  WS02004407           JUNCTION      0.00   530.71     0  01:51           0        4.55       0.026
  WS02004409           JUNCTION      0.00   530.07     0  01:51           0        4.55       0.060
  WS02004410           JUNCTION      0.00   525.01     0  01:52           0        4.55       0.099
  WS02004411           JUNCTION      0.00   520.96     0  01:52           0        4.54       0.124
  WS02004412           JUNCTION      0.00   517.32     0  01:52           0        4.54       0.166
  WS02004413           JUNCTION      0.00   515.62     0  01:52           0        4.53       0.298
  WS02006109           JUNCTION      1.23   562.25     0  02:05      0.0354        4.66       0.168
  WS02006110           JUNCTION      0.00   563.06     0  02:05           0        4.66       0.161
  WS02006111           JUNCTION      0.00   561.24     0  03:22           0        4.65       0.020
  WS02006112           JUNCTION      0.00   541.76     0  02:38           0        4.65       0.410
  WS02006113           JUNCTION      0.00   566.89     0  02:16           0        4.65       0.041
  WS02006115           JUNCTION      0.00   548.50     0  02:17           0        4.63       0.150
  WS02006116           JUNCTION      0.00   536.28     0  02:20           0        4.62       0.055
  WS02006228           JUNCTION      0.00   561.08     0  02:05           0        4.63       0.078
  WS02006229           JUNCTION      0.00   560.03     0  02:05           0        4.64       0.122
  WS02006230           JUNCTION     10.28   587.34     0  02:35       0.296        4.64       0.098
  WS02006231           JUNCTION      0.00   576.26     0  02:05           0        4.35      -0.039
  WS02006232           JUNCTION      0.00   575.43     0  02:05           0        4.36       0.242
  WS02006234           JUNCTION      0.00   570.94     0  02:05           0        4.34      -0.366
  WS02006235           JUNCTION      0.00   562.57     0  02:05           0        4.44       0.329
  WS02006238           JUNCTION      0.00   430.05     0  03:46           0        3.73      -0.059
  WS02006239           JUNCTION      0.00   428.81     0  03:46           0        3.66      -0.108
  WS02006240           JUNCTION      0.00   427.43     0  03:46           0        3.62      -0.055
  WS02006242           JUNCTION      0.00   426.60     0  03:46           0        3.62       0.012
  WS02006243           JUNCTION      0.00   425.70     0  03:46           0        3.61      -0.040
  WS02006245           JUNCTION      0.00   424.80     0  03:46           0        3.63       0.416
  WS02006247           JUNCTION      0.00   423.76     0  03:46           0        3.63      -0.006
  WS02006248           JUNCTION      0.00   422.78     0  03:46           0        3.63      -0.023
  WS02006249           JUNCTION      0.00   479.53     0  01:30           0         3.8       0.485
  WS02006251           JUNCTION      0.08   407.96     0  01:40     0.00222        3.81       0.031
  WS02006252           JUNCTION      0.00   400.00     0  00:00           0        3.79      -0.323
  WS02006256           JUNCTION      0.00   300.00     0  00:00           0        1.05      -3.035
  WSF200               JUNCTION      0.00   514.98     0  01:53           0        4.51       0.009
  YS02001580           JUNCTION      0.00   139.69     0  01:33           0     0.00446       4.067
  YS02001583           JUNCTION      0.00   224.74     0  01:33           0      0.0145     -11.495
  YS02001586           JUNCTION    739.79   739.81     0  01:43        2.13        2.14       0.072
  YS02001590           JUNCTION      0.00   318.04     0  01:42           0        1.62      -0.030
  YS02001593           JUNCTION      0.00   318.11     0  01:53           0        1.62      -0.000
  YS02001596           JUNCTION      0.00   318.32     0  01:42           0        1.62      -0.010
  YS02001600           JUNCTION      0.00   318.01     0  01:54           0        1.62      -0.002
  YS02001601           JUNCTION   1339.99  1657.42     0  01:41         2.9        4.52       0.010
  YS02001602           JUNCTION      0.00   566.04     0  01:33           0        2.66       0.013
  YS02001605           JUNCTION      0.00   565.13     0  01:33           0        2.49       0.011
  YS02001607           JUNCTION      0.00   564.87     0  01:33           0        2.49       0.078
  YS02001610           JUNCTION      0.00   720.81     0  01:42           0         2.8       0.071
  YS02001613           JUNCTION      0.00   545.71     0  01:33           0        2.16       0.076
  YS02001616           JUNCTION      0.00   547.60     0  01:33           0        2.16       0.013
  YS02001619           JUNCTION   1307.90  1307.90     0  01:42        3.42        5.27      -0.006
  YS02001622           JUNCTION      0.00   942.59     0  01:37           0        4.96      -0.007
  YS02001625           JUNCTION      0.00  1340.33     0  01:43           0        5.21       0.169
  YS02001629           JUNCTION      0.00   944.40     0  01:33           0        3.96      -0.009
  YS02001633           JUNCTION   1002.46  1443.81     0  01:35        2.13        5.77       0.055
  YS02001641           JUNCTION      0.00  1443.69     0  01:35           0        5.47       0.049
  YS02001644           JUNCTION    896.92  1946.05     0  01:35        1.84        7.31       0.033
  YS02001647           JUNCTION      0.00  1946.27     0  01:35           0        6.87       0.002
  YS02001649           JUNCTION      0.00  2229.51     0  01:35           0        8.57       0.004
  YS02001652           JUNCTION      0.00  1034.18     0  01:37           0         1.7      -0.097
  YS02001655           JUNCTION      0.15  1033.57     0  01:37     0.00443         1.7      -0.105
  YS02001658           JUNCTION      0.00  1032.80     0  01:37           0         1.7      -0.075
  YS02001661           JUNCTION      0.00  1030.39     0  01:37           0         1.7       0.028
  YS02001664           JUNCTION    865.12   865.12     0  01:39        1.69        1.69      -0.014
  YS02001745           JUNCTION    566.00   731.96     0  01:36        1.02        1.02       0.187
  YS02001748           JUNCTION      0.04   724.75     0  01:36      0.0013        1.02      -0.375
  YS02001751           JUNCTION      0.01   650.85     0  01:37    0.000317        1.03       0.065
  YS02001754           JUNCTION      0.26   651.08     0  01:37     0.00749        1.04      -0.196
  YS02001757           JUNCTION      0.00  3604.51     0  01:37           0          13       0.041
  YS02001759           JUNCTION    782.20  1574.51     0  01:36        1.41        3.36      -0.010
  YS02001762           JUNCTION      0.00   873.39     0  01:36           0        1.95      -0.003
  YS02001765           JUNCTION      0.00   874.20     0  01:36           0        1.95      -0.001
  YS02001767           JUNCTION      0.54   874.44     0  01:36      0.0154        1.95      -0.006
  YS02001770           JUNCTION   1103.13  1103.13     0  01:40        2.14        2.19      -0.017
  YS02001774           JUNCTION      0.00   572.54     0  01:35           0       0.276       0.328
  YS02001779           JUNCTION      0.01   575.30     0  01:35    0.000144       0.228      -0.324
  YS02001783           JUNCTION      0.00  1167.18     0  01:37           0        4.92       0.004
  YS02001784           JUNCTION      1.06  1168.51     0  01:37      0.0305        4.95       0.010
  YS02001786           JUNCTION      0.06  1168.83     0  01:37     0.00162        4.95       0.013
  YS02001788           JUNCTION      0.07  1168.59     0  01:37     0.00204        4.96       0.006
  YS02001790           JUNCTION      0.15  1176.13     0  01:39     0.00446        4.96       0.029
  YS02001791           JUNCTION      0.00  1281.31     0  01:43           0        4.96      -0.033
  YS02001793           JUNCTION      0.00  1239.39     0  01:48           0        4.96       0.005
  YS02001882           JUNCTION      0.00    67.75     0  01:34           0      0.0138       4.268
  YS02001884           JUNCTION      0.00   125.93     0  01:33           0      0.0502       4.907
  YS02001887           JUNCTION    852.56   853.43     0  01:38        1.46         1.5       0.300
  YS02001890           JUNCTION      0.00   853.78     0  01:38           0        1.46       0.347
  YS02001895           JUNCTION      0.00   538.69     0  01:34           0        1.32       0.142
  YS02001898           JUNCTION      0.00   544.70     0  01:34           0        1.32      -0.019
  YS02001901           JUNCTION      0.00   554.55     0  01:34           0        1.32       0.255
  YS02001904           JUNCTION      0.00   558.28     0  01:34           0        1.33       0.206
  YS02001907           JUNCTION      0.00  1971.37     0  01:41           0        4.51       0.379
  YS02001910           JUNCTION      0.00  1455.41     0  01:40           0        3.19       0.231
  YS02001915           JUNCTION    972.89  1454.77     0  01:41        2.04        3.24       0.040
  YS02001918           JUNCTION      0.00   581.66     0  01:35           0        1.24       0.002
  YS02001920           JUNCTION      2.87   612.02     0  01:35      0.0827        1.21       0.063
  YS02001923           JUNCTION      0.04   706.08     0  01:35     0.00109        1.11      -0.046
  YS02001926           JUNCTION      0.05  1045.22     0  01:35      0.0015        1.09      -0.041
  YS02001929           JUNCTION    470.84   869.44     0  01:35        1.07        1.08      -0.030
  YS02006553           JUNCTION      0.00   791.50     0  02:04           0        2.83       0.418
  YS02006556           JUNCTION      0.00   791.07     0  02:04           0        2.84       0.284
  YS02006558           JUNCTION   1130.27  1181.68     0  01:35        2.15        4.96       0.073
  YS02006561           JUNCTION      0.00  1180.82     0  01:35           0        4.92      -0.004
  YS02163301           JUNCTION      0.00   918.33     0  01:34           0        3.95       0.033
  YS02163601           JUNCTION      0.11  1443.36     0  01:35     0.00317        5.46       0.085
  YS02164001           JUNCTION      0.00  1442.67     0  01:35           0        5.46       0.036
  CC-1                 OUTFALL       0.00   683.00     0  00:00           0        5.45       0.000
  CC-2                 OUTFALL       0.00   683.00     0  00:00           0        4.57       0.000
  JK-1                 OUTFALL       0.00  1000.00     0  00:00           0        3.04       0.000
  JK-2                 OUTFALL       0.00  1000.00     0  00:00           0           1       0.000
  WSC                  OUTFALL       0.00   530.55     0  01:56           0        5.03       0.000
  CC-storage           STORAGE       0.00  3605.27     0  01:37           0        15.2      -0.212
  JK-storage           STORAGE       0.00  1254.86     0  01:39           0        5.11      -0.324
  
  
  **********************
  Node Surcharge Summary
  **********************
  
  Surcharging occurs when water rises above the top of the highest conduit.
  ---------------------------------------------------------------------
                                               Max. Height   Min. Depth
                                   Hours       Above Crown    Below Rim
  Node                 Type      Surcharged         Meters       Meters
  ---------------------------------------------------------------------
  WS02006109           JUNCTION        2.21          0.323        1.497
  WS02006110           JUNCTION        0.49          0.250        1.600
  WS02006112           JUNCTION        0.60          0.086        1.594
  WS02006228           JUNCTION        2.20          0.494        1.706
  WS02006229           JUNCTION        2.22          0.588        1.862
  WS02006230           JUNCTION        0.51          0.592        0.978
  WS02006231           JUNCTION        0.63          0.561        0.969
  WS02006232           JUNCTION        2.27          0.790        0.690
  WS02006234           JUNCTION        1.03          0.924        0.316
  WS02006235           JUNCTION        2.22          1.015        0.275
  WS02006238           JUNCTION        2.25          1.051        0.379
  WS02006239           JUNCTION        2.18          0.999        0.291
  WS02006240           JUNCTION        2.18          0.929        0.461
  WS02006242           JUNCTION        2.22          0.820        0.000
  WS02006243           JUNCTION        2.18          0.677        0.093
  WS02006245           JUNCTION        2.18          0.590        0.260
  WS02006247           JUNCTION        2.18          0.540        0.220
  WS02006248           JUNCTION        2.17          0.380        0.000
  WS02006249           JUNCTION        2.17          0.390        0.000
  WS02006251           JUNCTION        0.69          0.383        0.797
  WS02006252           JUNCTION        2.49          1.100        0.000
  WS02006256           JUNCTION        6.54          2.050        0.000
  YS02001580           JUNCTION        0.84          0.450        0.000
  YS02001583           JUNCTION        0.84          0.500        0.000
  YS02001586           JUNCTION        1.04          0.510        0.000
  YS02001590           JUNCTION        1.13          0.750        0.000
  YS02001593           JUNCTION        1.13          0.737        0.103
  YS02001596           JUNCTION        1.27          0.969        0.101
  YS02001600           JUNCTION        1.46          1.190        0.000
  YS02001601           JUNCTION        1.74          1.440        0.000
  YS02001602           JUNCTION        1.67          1.270        0.000
  YS02001605           JUNCTION        1.63          1.180        0.000
  YS02001607           JUNCTION        1.12          0.680        0.000
  YS02001610           JUNCTION        1.16          0.680        0.000
  YS02001613           JUNCTION        1.12          0.700        0.000
  YS02001616           JUNCTION        1.07          0.610        0.000
  YS02001619           JUNCTION        1.06          0.610        0.000
  YS02001622           JUNCTION        1.05          0.606        0.014
  YS02001625           JUNCTION        1.27          0.780        0.000
  YS02001629           JUNCTION        0.99          0.470        0.000
  YS02001633           JUNCTION        1.30          1.060        0.000
  YS02001641           JUNCTION        1.25          0.991        0.109
  YS02001644           JUNCTION        1.23          0.920        0.000
  YS02001647           JUNCTION        0.98          0.815        0.085
  YS02001649           JUNCTION        1.15          1.050        0.000
  YS02001652           JUNCTION        0.89          1.130        0.000
  YS02001655           JUNCTION        0.61          1.200        0.000
  YS02001658           JUNCTION        0.28          1.300        0.000
  YS02001661           JUNCTION        0.02          1.390        0.000
  YS02001664           JUNCTION        0.01          0.681        0.629
  YS02001745           JUNCTION        0.01          1.350        0.000
  YS02001748           JUNCTION        0.18          1.190        0.000
  YS02001751           JUNCTION        0.40          1.200        0.000
  YS02001754           JUNCTION        0.74          1.150        0.000
  YS02001757           JUNCTION        1.24          1.210        0.000
  YS02001759           JUNCTION        1.12          1.203        0.007
  YS02001762           JUNCTION        1.08          1.150        0.000
  YS02001765           JUNCTION        1.02          1.100        0.000
  YS02001767           JUNCTION        0.97          1.030        0.000
  YS02001770           JUNCTION        0.93          0.920        0.000
  YS02001774           JUNCTION        1.05          1.050        0.000
  YS02001779           JUNCTION        0.72          0.680        0.000
  YS02001783           JUNCTION        0.71          0.897        0.703
  YS02001784           JUNCTION        0.68          0.583        0.907
  YS02001786           JUNCTION        0.56          0.292        1.138
  YS02001882           JUNCTION        0.64          0.830        0.000
  YS02001884           JUNCTION        0.65          0.870        0.000
  YS02001887           JUNCTION        0.70          0.908        0.042
  YS02001890           JUNCTION        0.71          0.760        0.000
  YS02001895           JUNCTION        0.63          0.636        0.114
  YS02001898           JUNCTION        0.62          0.629        0.111
  YS02001901           JUNCTION        0.68          0.738        0.132
  YS02001904           JUNCTION        0.67          0.659        0.191
  YS02001907           JUNCTION        0.95          0.950        0.000
  YS02001910           JUNCTION        0.75          0.985        0.115
  YS02001915           JUNCTION        0.64          0.942        0.058
  YS02001918           JUNCTION        0.54          0.810        0.000
  YS02001920           JUNCTION        0.56          1.118        0.022
  YS02001923           JUNCTION        0.14          0.820        0.000
  YS02001926           JUNCTION        0.18          0.900        0.000
  YS02001929           JUNCTION        0.01          0.780        0.000
  YS02006553           JUNCTION        0.98          1.110        0.080
  YS02006556           JUNCTION        0.84          1.205        0.145
  YS02006558           JUNCTION        0.84          1.228        0.172
  YS02006561           JUNCTION        0.51          0.781        0.369
  YS02163301           JUNCTION        1.28          0.970        0.060
  YS02163601           JUNCTION        1.34          1.080        0.000
  YS02164001           JUNCTION        1.26          1.012        0.088
  
  
  *********************
  Node Flooding Summary
  *********************
  
  Flooding refers to all water that overflows a node, whether it ponds or not.
  --------------------------------------------------------------------------
                                                             Total   Maximum
                                 Maximum   Time of Max       Flood    Ponded
                        Hours       Rate    Occurrence      Volume     Depth
  Node                 Flooded       LPS   days hr:min    10^6 ltr    Meters
  --------------------------------------------------------------------------
  WS02006242              0.01      7.18      0  02:15       0.000     0.000
  WS02006248              0.01      4.43      0  02:15       0.000     0.000
  WS02006249              0.66    110.43      0  01:40       0.157     0.000
  WS02006252              0.01    245.63      0  00:00       0.000     0.000
  WS02006256              0.96    293.19      0  00:00       0.336     0.000
  YS02001580              0.01     72.12      0  01:33       0.000     0.000
  YS02001583              0.01    132.25      0  01:33       0.000     0.000
  YS02001586              0.67    422.27      0  01:43       0.512     0.000
  YS02001590              0.01      6.24      0  01:33       0.000     0.000
  YS02001600              0.01      4.34      0  01:33       0.000     0.000
  YS02001601              0.94   1259.62      0  01:41       1.862     0.000
  YS02001602              0.82     62.01      0  02:09       0.166     0.000
  YS02001605              0.01      2.39      0  01:33       0.000     0.000
  YS02001607              0.01      0.66      0  02:24       0.000     0.000
  YS02001610              0.72    720.67      0  01:42       0.944     0.000
  YS02001613              0.01      1.40      0  02:24       0.000     0.000
  YS02001616              0.01      2.39      0  02:24       0.000     0.000
  YS02001619              0.01      2.93      0  02:24       0.000     0.000
  YS02001625              0.68   1340.14      0  01:43       1.542     0.000
  YS02001629              0.13    303.49      0  01:38       0.070     0.000
  YS02001633              0.01      5.26      0  01:35       0.000     0.000
  YS02001644              0.23    925.27      0  01:38       0.423     0.000
  YS02001649              0.01    168.44      0  01:37       0.001     0.000
  YS02001652              0.01     86.73      0  01:36       0.000     0.000
  YS02001655              0.01    361.39      0  01:36       0.001     0.000
  YS02001658              0.01    410.78      0  01:36       0.001     0.000
  YS02001661              0.01    302.02      0  01:36       0.000     0.000
  YS02001745              0.01    241.49      0  01:36       0.000     0.000
  YS02001748              0.01    521.87      0  01:36       0.001     0.000
  YS02001751              0.01    276.03      0  01:36       0.000     0.000
  YS02001754              0.01    297.12      0  01:36       0.000     0.000
  YS02001757              0.01      3.45      0  01:37       0.000     0.000
  YS02001762              0.01      6.60      0  01:36       0.000     0.000
  YS02001765              0.01      2.77      0  01:36       0.000     0.000
  YS02001767              0.01    121.34      0  01:35       0.000     0.000
  YS02001770              0.01    304.95      0  01:35       0.001     0.000
  YS02001774              0.01    111.39      0  01:35       0.000     0.000
  YS02001779              0.21    545.51      0  01:35       0.206     0.000
  YS02001882              0.01      5.99      0  01:35       0.000     0.000
  YS02001884              0.01      6.19      0  01:35       0.000     0.000
  YS02001890              0.20    337.15      0  01:38       0.133     0.000
  YS02001907              0.47   1916.78      0  01:39       1.669     0.000
  YS02001918              0.01    175.34      0  01:36       0.002     0.000
  YS02001923              0.01    111.64      0  01:35       0.000     0.000
  YS02001926              0.01    843.47      0  01:35       0.005     0.000
  YS02001929              0.01    678.41      0  01:35       0.002     0.000
  YS02163601              0.01      8.12      0  01:35       0.000     0.000
  
  
  **********************
  Storage Volume Summary
  **********************
  
  ------------------------------------------------------------------------------------------------
                         Average    Avg   Evap  Exfil     Maximum    Max    Time of Max    Maximum
                          Volume   Pcnt   Pcnt   Pcnt      Volume   Pcnt     Occurrence    Outflow
  Storage Unit           1000 m³   Full   Loss   Loss     1000 m³   Full    days hr:min        LPS
  ------------------------------------------------------------------------------------------------
  CC-storage               2.487   38.8    0.0    0.0       4.749   74.1       0  02:22    1783.53
  JK-storage               0.079   27.1    0.0    0.0       0.212   72.7       0  01:52    2300.00
  
  
  ***********************
  Outfall Loading Summary
  ***********************
  
  -----------------------------------------------------------
                         Flow       Avg       Max       Total
                         Freq      Flow      Flow      Volume
  Outfall Node           Pcnt       LPS       LPS    10^6 ltr
  -----------------------------------------------------------
  CC-1                  40.76    683.00    683.00       5.455
  CC-2                  37.04    683.00    683.00       4.572
  JK-1                  18.77   1000.00   1000.00       3.037
  JK-2                   5.06   1000.00   1000.00       1.001
  WSC                   99.94    240.18    530.55       5.031
  -----------------------------------------------------------
  System                40.31   3606.18   3896.55      19.096
  
  
  ********************
  Link Flow Summary
  ********************
  
  -----------------------------------------------------------------------------
                                 Maximum  Time of Max   Maximum    Max/    Max/
                                  |Flow|   Occurrence   |Veloc|    Full    Full
  Link                 Type          LPS  days hr:min     m/sec    Flow   Depth
  -----------------------------------------------------------------------------
  1                    CONDUIT    530.55     0  01:56      2.79    0.18    0.29
  WS02003060WS02003069 CONDUIT    532.35     0  01:54      1.63    0.21    0.33
  WS02003066WSF200     CONDUIT    514.98     0  01:53      2.82    0.09    0.22
  WS02003067WS02003066 CONDUIT    514.79     0  01:53      1.18    0.16    0.41
  WS02003069WS02003072 CONDUIT    531.50     0  01:54      1.35    0.26    0.38
  WS02003072WS02003073 CONDUIT    530.59     0  01:55      1.41    1.15    0.37
  WS02004401WS02004402 CONDUIT    533.44     0  01:50      1.07    0.64    0.88
  WS02004402WS02004403 CONDUIT    531.92     0  01:50      1.09    0.76    0.90
  WS02004403WS02004404 CONDUIT    546.15     0  01:51      1.06    0.39    0.95
  WS02004404WS02004405 CONDUIT    594.51     0  01:51      1.25    5.82    0.97
  WS02004405WS02004406 CONDUIT    534.33     0  01:51      1.20    1.05    0.96
  WS02004406WS02004407 CONDUIT    530.71     0  01:51      1.03    0.24    0.62
  WS02004407WS02004409 CONDUIT    530.07     0  01:51      1.57    0.19    0.47
  WS02004409WS02004410 CONDUIT    525.01     0  01:52      1.05    0.68    0.66
  WS02004410WS02004411 CONDUIT    520.96     0  01:52      0.98    0.71    0.67
  WS02004411WS02004412 CONDUIT    517.32     0  01:52      0.91    0.73    0.68
  WS02004412WS02004413 CONDUIT    515.62     0  01:52      0.82    0.35    0.77
  WS02004413WS02003067 CONDUIT    514.37     0  01:53      1.08    0.22    0.58
  WS02006109WS02006110 CONDUIT    563.06     0  02:05      1.12    1.08    1.00
  WS02006110WS02006113 CONDUIT    566.89     0  02:16      1.37    0.52    0.79
  WS02006111WS02006112 CONDUIT    541.76     0  02:38      1.85    0.26    0.67
  WS02006112WS02006115 CONDUIT    548.50     0  02:17      0.87    0.32    0.88
  WS02006113WS02006111 CONDUIT    561.24     0  03:22      2.46    0.67    0.46
  WS02006115WS02006116 CONDUIT    536.28     0  02:20      1.11    0.69    0.77
  WS02006116WS02004401 CONDUIT    535.03     0  01:50      1.07    0.74    0.86
  WS02006228WS02006109 CONDUIT    561.02     0  02:05      1.12    2.45    1.00
  WS02006229WS02006228 CONDUIT    561.08     0  02:05      1.12    1.86    1.00
  WS02006230WS02006229 CONDUIT    560.03     0  02:05      1.46   12.46    1.00
  WS02006231WS02006230 CONDUIT    577.06     0  02:35      1.57    8.75    1.00
  WS02006232WS02006231 CONDUIT    576.26     0  02:05      1.51    1.21    1.00
  WS02006234WS02006232 CONDUIT    575.43     0  02:05      1.50    1.16    1.00
  WS02006235WS02006234 CONDUIT    570.94     0  02:05      1.48    6.02    1.00
  WS02006238WS02006235 CONDUIT    431.24     0  03:46      1.47    0.96    1.00
  WS02006239WS02006238 CONDUIT    430.05     0  03:46      1.12    1.38    1.00
  WS02006240WS02006239 CONDUIT    428.81     0  03:46      1.24    1.35    1.00
  WS02006242WS02006240 CONDUIT    427.43     0  03:46      1.16    1.70    1.00
  WS02006243WS02006242 CONDUIT    426.60     0  03:46      1.41    0.91    1.00
  WS02006245WS02006243 CONDUIT    425.70     0  03:46      1.45    1.26    1.00
  WS02006247WS02006245 CONDUIT    424.80     0  03:46      1.43    3.37    1.00
  WS02006248WS02006247 CONDUIT    423.76     0  03:46      1.44    0.92    1.00
  WS02006249WS02006248 CONDUIT    422.78     0  03:46      1.36    2.32    1.00
  WS02006251WS02006249 CONDUIT    479.53     0  01:30      2.10    1.38    1.00
  WS02006252WS02006251 CONDUIT    407.88     0  01:40     22.06    1.50    1.00
  WS02006256WS02006235 CONDUIT    288.91     0  00:00      4.23    3.06    1.00
  WSF200WS02003060     CONDUIT    515.82     0  01:53      2.04    0.11    0.28
  YS02001580YS02001583 CONDUIT    139.69     0  01:33      0.83    0.54    1.00
  YS02001583YS02001586 CONDUIT    187.83     0  01:33      0.83    0.28    1.00
  YS02001586YS02001590 CONDUIT    318.04     0  01:42      1.27    0.56    1.00
  YS02001590YS02001593 CONDUIT    318.11     0  01:53      1.13    2.00    1.00
  YS02001593YS02001596 CONDUIT    318.32     0  01:42      1.73    0.50    1.00
  YS02001596YS02001600 CONDUIT    318.01     0  01:54      1.23    0.62    1.00
  YS02001600YS02001601 CONDUIT    318.36     0  01:42      1.13    0.55    1.00
  YS02001601YS02001602 CONDUIT    566.04     0  01:33      2.00    2.04    1.00
  YS02001602YS02001605 CONDUIT    565.13     0  01:33      2.00   11.96    1.00
  YS02001605YS02001607 CONDUIT    564.87     0  01:33      2.00    3.10    1.00
  YS02001607YS02001610 CONDUIT    542.60     0  01:33      0.70    0.52    1.00
  YS02001610YS02001613 CONDUIT    545.71     0  01:33      0.69    0.63    1.00
  YS02001613YS02001616 CONDUIT    547.60     0  01:33      0.70    0.47    1.00
  YS02001616YS02001619 CONDUIT    502.25     0  01:33      0.69    0.87    1.00
  YS02001619YS02001622 CONDUIT    942.59     0  01:37      1.26    1.39    1.00
  YS02001622YS02001625 CONDUIT    943.07     0  01:33      1.20    0.50    1.00
  YS02001625YS02001629 CONDUIT    944.40     0  01:33      1.20    0.45    1.00
  YS02001629YS02163301 CONDUIT    918.33     0  01:34      1.17    1.13    1.00
  YS02001633YS02163601 CONDUIT   1443.25     0  01:35      1.84    1.52    1.00
  YS02001641YS02001644 CONDUIT   1445.54     0  01:35      1.84    4.67    1.00
  YS02001644YS02001647 CONDUIT   1946.27     0  01:35      2.48    1.14    1.00
  YS02001647YS02001649 CONDUIT   1924.11     0  01:35      2.45    1.02    1.00
  YS02001649YS02001757 CONDUIT   2226.84     0  01:35      2.84    1.35    1.00
  YS02001652YS02001649 CONDUIT   1034.61     0  01:37      1.32    0.51    1.00
  YS02001655YS02001652 CONDUIT   1034.18     0  01:37      1.51    0.50    1.00
  YS02001658YS02001655 CONDUIT   1033.41     0  01:37      2.02    0.44    1.00
  YS02001661YS02001658 CONDUIT   1032.80     0  01:37      2.46    0.41    1.00
  YS02001664YS02001661 CONDUIT   1030.39     0  01:37      2.53    0.32    1.00
  YS02001745YS02001748 CONDUIT    708.31     0  01:36      2.40    0.27    1.00
  YS02001748YS02001751 CONDUIT    650.84     0  01:37      1.86    0.33    1.00
  YS02001751YS02001754 CONDUIT    650.82     0  01:37      1.57    0.31    1.00
  YS02001754YS02001757 CONDUIT    651.09     0  01:37      0.83    0.26    1.00
  YS02001757CaochengTiaoxuchi CONDUIT   3605.27     0  01:37      4.96    1.56    1.00
  YS02001759YS02001757 CONDUIT   1574.03     0  01:36      2.00    1.12    1.00
  YS02001762YS02001759 CONDUIT    873.35     0  01:36      1.11    1.01    1.00
  YS02001765YS02001762 CONDUIT    873.39     0  01:36      1.11    0.82    1.00
  YS02001767YS02001765 CONDUIT    874.20     0  01:36      1.11    1.10    1.00
  YS02001770YS02001767 CONDUIT    873.90     0  01:36      1.11    3.46    1.00
  YS02001774YS02001770 CONDUIT    572.54     0  01:35      0.73    0.37    1.00
  YS02001779YS02001774 CONDUIT    575.30     0  01:35      0.73    0.29    1.00
  YS02001783YS02001784 CONDUIT   1167.45     0  01:37      2.32    1.61    1.00
  YS02001784YS02001785 CONDUIT   1168.77     0  01:37      2.33    2.72    1.00
  YS02001786YS02001788 CONDUIT   1168.52     0  01:37      2.49    2.25    0.89
  YS02001788YS02001790 CONDUIT   1175.98     0  01:39      2.71    0.87    0.84
  YS02001790YS02001791 CONDUIT   1281.31     0  01:43      3.42    1.39    0.70
  YS02001791YS02001793 CONDUIT   1239.39     0  01:48      6.79    0.53    0.45
  YS02001793JiankangQianchi CONDUIT   1254.86     0  01:39      2.51    0.10    0.65
  YS02001882YS02001884 CONDUIT     67.75     0  01:34      0.18    0.08    1.00
  YS02001884YS02001887 CONDUIT    125.93     0  01:33      0.16    0.17    1.00
  YS02001887YS02001890 CONDUIT    853.78     0  01:38      1.09    1.46    1.00
  YS02001890YS02001895 CONDUIT    538.69     0  01:34      0.69    0.25    1.00
  YS02001895YS02001898 CONDUIT    544.70     0  01:34      0.69    0.95    1.00
  YS02001898YS02001901 CONDUIT    554.55     0  01:34      0.71    0.36    1.00
  YS02001901YS02001904 CONDUIT    558.28     0  01:34      0.71    0.87    1.00
  YS02001904YS02001907 CONDUIT    564.28     0  01:34      0.72    0.20    1.00
  YS02001907YS02006553 CONDUIT    791.50     0  02:04      0.88    0.93    1.00
  YS02001910YS02001907 CONDUIT   1455.02     0  01:41      1.85    0.82    1.00
  YS02001915YS02001910 CONDUIT   1455.41     0  01:40      1.85    0.72    1.00
  YS02001918YS02001915 CONDUIT    581.66     0  01:35      0.76    0.32    1.00
  YS02001920YS02001918 CONDUIT    609.15     0  01:35      0.78    0.59    1.00
  YS02001923YS02001920 CONDUIT    574.40     0  01:35      0.74    0.26    1.00
  YS02001926YS02001923 CONDUIT    815.11     0  01:35      1.26    1.16    1.00
  YS02001929YS02001926 CONDUIT    588.73     0  01:35      1.21    0.28    1.00
  YS02006553YS02006556 CONDUIT    791.07     0  02:04      1.01    0.68    1.00
  YS02006556YS02006558 CONDUIT    791.22     0  02:04      1.01    0.62    1.00
  YS02006558YS02006561 CONDUIT   1180.82     0  01:35      4.18    2.61    1.00
  YS02006561YS02001783 CONDUIT   1167.18     0  01:37      2.32    0.60    1.00
  YS02163301YS02001633 CONDUIT    918.58     0  01:34      1.17    0.86    1.00
  YS02163601YS02164001 CONDUIT   1442.67     0  01:35      1.84    1.28    1.00
  YS02164001YS02001641 CONDUIT   1443.69     0  01:35      1.84    1.97    1.00
  CC-R1                PUMP       683.00     0  00:00              1.00
  CC-R2                PUMP       683.00     0  00:00              1.00
  CC-S1                PUMP       200.00     0  00:00              1.00
  CC-S2                PUMP       200.00     0  00:00              1.00
  JK-R1                PUMP      1000.00     0  00:00              1.00
  JK-R2                PUMP      1000.00     0  00:00              1.00
  JK-S                 PUMP       300.00     0  00:00              1.00
  
  
  ***************************
  Flow Classification Summary
  ***************************
  
  -------------------------------------------------------------------------------------
                      Adjusted    ---------- Fraction of Time in Flow Class ---------- 
                       /Actual         Up    Down  Sub   Sup   Up    Down  Norm  Inlet 
  Conduit               Length    Dry  Dry   Dry   Crit  Crit  Crit  Crit  Ltd   Ctrl  
  -------------------------------------------------------------------------------------
  1                       1.00   0.00  0.00  0.00  0.00  1.00  0.00  0.00  0.36  0.00
  WS02003060WS02003069    1.00   0.00  0.00  0.00  0.98  0.02  0.00  0.00  0.69  0.00
  WS02003066WSF200        1.00   0.07  0.00  0.00  0.00  0.93  0.00  0.00  0.85  0.00
  WS02003067WS02003066    1.00   0.06  0.01  0.00  0.93  0.00  0.00  0.00  0.00  0.00
  WS02003069WS02003072    1.00   0.00  0.00  0.00  0.99  0.01  0.00  0.00  0.71  0.00
  WS02003072WS02003073    1.00   0.00  0.00  0.00  0.00  0.00  0.00  1.00  0.00  0.00
  WS02004401WS02004402    1.00   0.02  0.00  0.00  0.98  0.00  0.00  0.00  0.00  0.00
  WS02004402WS02004403    1.00   0.02  0.00  0.00  0.97  0.00  0.00  0.00  0.00  0.00
  WS02004403WS02004404    1.00   0.00  0.03  0.00  0.97  0.00  0.00  0.00  0.00  0.00
  WS02004404WS02004405    1.00   0.00  0.00  0.00  1.00  0.00  0.00  0.00  0.01  0.00
  WS02004405WS02004406    1.00   0.00  0.00  0.00  1.00  0.00  0.00  0.00  0.00  0.00
  WS02004406WS02004407    1.00   0.00  0.04  0.00  0.96  0.00  0.00  0.00  0.00  0.00
  WS02004407WS02004409    1.00   0.04  0.00  0.00  0.95  0.01  0.00  0.00  0.95  0.00
  WS02004409WS02004410    1.00   0.04  0.00  0.00  0.96  0.00  0.00  0.00  0.00  0.00
  WS02004410WS02004411    1.00   0.04  0.00  0.00  0.96  0.00  0.00  0.00  0.00  0.00
  WS02004411WS02004412    1.00   0.04  0.00  0.00  0.96  0.00  0.00  0.00  0.00  0.00
  WS02004412WS02004413    1.00   0.04  0.00  0.00  0.95  0.00  0.00  0.00  0.00  0.00
  WS02004413WS02003067    1.00   0.04  0.01  0.00  0.00  0.00  0.94  0.00  0.00  0.00
  WS02006109WS02006110    1.00   0.00  0.01  0.00  0.98  0.00  0.01  0.00  0.00  0.00
  WS02006110WS02006113    1.00   0.01  0.01  0.00  0.98  0.00  0.00  0.00  0.00  0.00
  WS02006111WS02006112    1.00   0.02  0.00  0.00  0.98  0.00  0.00  0.00  0.98  0.00
  WS02006112WS02006115    1.00   0.02  0.00  0.00  0.97  0.00  0.00  0.00  0.00  0.00
  WS02006113WS02006111    1.00   0.02  0.00  0.00  0.00  0.98  0.00  0.00  0.12  0.00
  WS02006115WS02006116    1.00   0.02  0.00  0.00  0.97  0.00  0.00  0.01  0.00  0.00
  WS02006116WS02004401    1.00   0.02  0.00  0.00  0.98  0.00  0.00  0.00  0.00  0.00
  WS02006228WS02006109    1.00   0.00  0.00  0.00  1.00  0.00  0.00  0.00  0.00  0.00
  WS02006229WS02006228    1.00   0.00  0.00  0.00  0.99  0.00  0.00  0.01  0.00  0.00
  WS02006230WS02006229    1.00   0.00  0.00  0.00  0.99  0.00  0.00  0.01  0.04  0.00
  WS02006231WS02006230    1.00   0.00  0.00  0.00  0.30  0.00  0.70  0.00  0.00  0.00
  WS02006232WS02006231    1.00   0.00  0.00  0.00  0.99  0.00  0.01  0.00  0.00  0.00
  WS02006234WS02006232    1.00   0.00  0.00  0.00  1.00  0.00  0.00  0.00  0.06  0.00
  WS02006235WS02006234    1.00   0.00  0.00  0.00  0.90  0.00  0.10  0.00  0.00  0.00
  WS02006238WS02006235    1.00   0.00  0.00  0.00  1.00  0.00  0.00  0.00  0.00  0.00
  WS02006239WS02006238    1.00   0.00  0.00  0.00  1.00  0.00  0.00  0.00  0.16  0.00
  WS02006240WS02006239    1.00   0.00  0.00  0.00  0.66  0.00  0.00  0.34  0.04  0.00
  WS02006242WS02006240    1.00   0.00  0.00  0.00  0.98  0.00  0.01  0.00  0.00  0.00
  WS02006243WS02006242    1.00   0.00  0.00  0.00  0.99  0.00  0.00  0.01  0.61  0.00
  WS02006245WS02006243    1.00   0.00  0.00  0.00  0.77  0.00  0.00  0.23  0.01  0.00
  WS02006247WS02006245    1.00   0.00  0.00  0.00  0.96  0.00  0.00  0.03  0.00  0.00
  WS02006248WS02006247    1.00   0.00  0.00  0.00  0.98  0.00  0.00  0.01  0.51  0.00
  WS02006249WS02006248    1.00   0.00  0.00  0.00  0.43  0.00  0.57  0.00  0.00  0.00
  WS02006251WS02006249    1.00   0.00  0.00  0.00  0.99  0.01  0.00  0.00  0.57  0.00
  WS02006252WS02006251    1.00   0.01  0.41  0.00  0.09  0.00  0.49  0.00  0.00  0.00
  WS02006256WS02006235    1.00   0.00  0.00  0.00  0.98  0.02  0.00  0.00  0.00  0.00
  WSF200WS02003060        1.00   0.00  0.07  0.00  0.46  0.47  0.00  0.00  0.62  0.00
  YS02001580YS02001583    1.00   0.19  0.58  0.00  0.23  0.00  0.00  0.00  0.67  0.00
  YS02001583YS02001586    1.00   0.41  0.30  0.00  0.29  0.00  0.00  0.00  0.67  0.00
  YS02001586YS02001590    1.00   0.13  0.00  0.00  0.44  0.04  0.00  0.39  0.33  0.00
  YS02001590YS02001593    1.00   0.13  0.01  0.00  0.16  0.00  0.71  0.00  0.00  0.00
  YS02001593YS02001596    1.00   0.13  0.00  0.00  0.18  0.01  0.00  0.67  0.03  0.00
  YS02001596YS02001600    1.00   0.13  0.00  0.00  0.23  0.01  0.00  0.62  0.03  0.00
  YS02001600YS02001601    1.00   0.13  0.01  0.00  0.86  0.00  0.00  0.00  0.58  0.00
  YS02001601YS02001602    1.00   0.13  0.01  0.00  0.87  0.00  0.00  0.00  0.00  0.00
  YS02001602YS02001605    1.00   0.13  0.00  0.00  0.87  0.00  0.00  0.00  0.00  0.00
  YS02001605YS02001607    1.00   0.13  0.00  0.00  0.87  0.00  0.00  0.00  0.00  0.00
  YS02001607YS02001610    1.00   0.13  0.01  0.00  0.86  0.00  0.00  0.00  0.01  0.00
  YS02001610YS02001613    1.00   0.13  0.00  0.00  0.87  0.00  0.00  0.00  0.00  0.00
  YS02001613YS02001616    1.00   0.13  0.00  0.00  0.87  0.00  0.00  0.00  0.00  0.00
  YS02001616YS02001619    1.00   0.13  0.00  0.00  0.87  0.00  0.00  0.00  0.00  0.00
  YS02001619YS02001622    1.00   0.13  0.00  0.00  0.87  0.00  0.00  0.00  0.28  0.00
  YS02001622YS02001625    1.00   0.13  0.00  0.00  0.87  0.00  0.00  0.00  0.03  0.00
  YS02001625YS02001629    1.00   0.13  0.04  0.00  0.20  0.00  0.63  0.00  0.00  0.00
  YS02001629YS02163301    1.00   0.14  0.01  0.00  0.85  0.00  0.00  0.00  0.00  0.00
  YS02001633YS02163601    1.00   0.00  0.01  0.00  0.99  0.00  0.00  0.00  0.14  0.00
  YS02001641YS02001644    1.00   0.00  0.01  0.00  0.99  0.00  0.00  0.00  0.00  0.00
  YS02001644YS02001647    1.00   0.00  0.16  0.00  0.84  0.00  0.00  0.00  0.00  0.00
  YS02001647YS02001649    1.00   0.00  0.16  0.00  0.59  0.25  0.00  0.00  0.55  0.00
  YS02001649YS02001757    1.00   0.00  0.00  0.00  0.76  0.24  0.00  0.00  0.40  0.00
  YS02001652YS02001649    1.00   0.00  0.00  0.00  0.97  0.03  0.00  0.00  0.70  0.00
  YS02001655YS02001652    1.00   0.00  0.00  0.00  0.23  0.01  0.00  0.76  0.04  0.00
  YS02001658YS02001655    1.00   0.00  0.14  0.00  0.70  0.16  0.00  0.00  0.65  0.00
  YS02001661YS02001658    1.00   0.14  0.00  0.00  0.54  0.32  0.00  0.00  0.70  0.00
  YS02001664YS02001661    1.00   0.13  0.00  0.00  0.75  0.12  0.00  0.00  0.85  0.00
  YS02001745YS02001748    1.00   0.00  0.00  0.00  0.15  0.01  0.00  0.85  0.06  0.00
  YS02001748YS02001751    1.00   0.00  0.00  0.00  0.87  0.13  0.00  0.00  0.76  0.00
  YS02001751YS02001754    1.00   0.00  0.00  0.00  0.22  0.00  0.00  0.78  0.03  0.00
  YS02001754YS02001757    1.00   0.00  0.00  0.00  1.00  0.00  0.00  0.00  0.75  0.00
  YS02001757CaochengTiaoxuchi    1.00   0.00  0.00  0.00  0.97  0.03  0.00  0.00  0.72  0.00
  YS02001759YS02001757    1.00   0.00  0.00  0.00  0.98  0.02  0.00  0.00  0.61  0.00
  YS02001762YS02001759    1.00   0.00  0.00  0.00  1.00  0.00  0.00  0.00  0.02  0.00
  YS02001765YS02001762    1.00   0.00  0.00  0.00  1.00  0.00  0.00  0.00  0.68  0.00
  YS02001767YS02001765    1.00   0.00  0.00  0.00  1.00  0.00  0.00  0.00  0.00  0.00
  YS02001770YS02001767    1.00   0.00  0.00  0.00  1.00  0.00  0.00  0.00  0.00  0.00
  YS02001774YS02001770    1.00   0.00  0.13  0.00  0.71  0.00  0.16  0.00  0.02  0.00
  YS02001779YS02001774    1.00   0.00  0.00  0.00  1.00  0.00  0.00  0.00  0.74  0.00
  YS02001783YS02001784    1.00   0.00  0.16  0.00  0.84  0.00  0.00  0.00  0.55  0.00
  YS02001784YS02001785    1.00   0.00  0.00  0.00  1.00  0.00  0.00  0.00  0.15  0.00
  YS02001786YS02001788    1.00   0.00  0.00  0.00  0.79  0.21  0.00  0.00  0.00  0.00
  YS02001788YS02001790    1.00   0.00  0.00  0.00  0.20  0.80  0.00  0.00  0.78  0.00
  YS02001790YS02001791    1.00   0.00  0.00  0.00  0.01  0.99  0.00  0.00  0.17  0.00
  YS02001791YS02001793    1.00   0.00  0.00  0.00  0.00  1.00  0.00  0.00  0.01  0.00
  YS02001793JiankangQianchi    1.00   0.00  0.00  0.00  0.95  0.05  0.00  0.00  0.97  0.00
  YS02001882YS02001884    1.00   0.14  0.01  0.00  0.85  0.00  0.00  0.00  0.00  0.00
  YS02001884YS02001887    1.00   0.06  0.05  0.00  0.89  0.00  0.00  0.00  0.00  0.00
  YS02001887YS02001890    1.00   0.00  0.00  0.00  0.97  0.00  0.03  0.00  0.00  0.00
  YS02001890YS02001895    1.00   0.00  0.15  0.00  0.85  0.00  0.00  0.00  0.00  0.00
  YS02001895YS02001898    1.00   0.15  0.00  0.00  0.83  0.00  0.01  0.00  0.00  0.00
  YS02001898YS02001901    1.00   0.15  0.00  0.00  0.85  0.00  0.00  0.00  0.00  0.00
  YS02001901YS02001904    1.00   0.15  0.00  0.00  0.85  0.00  0.00  0.00  0.00  0.00
  YS02001904YS02001907    1.00   0.00  0.15  0.00  0.85  0.00  0.00  0.00  0.00  0.00
  YS02001907YS02006553    1.00   0.00  0.02  0.00  0.98  0.00  0.00  0.00  0.00  0.00
  YS02001910YS02001907    1.00   0.00  0.00  0.00  0.97  0.00  0.00  0.03  0.12  0.00
  YS02001915YS02001910    1.00   0.00  0.00  0.00  0.97  0.03  0.00  0.00  0.13  0.00
  YS02001918YS02001915    1.00   0.00  0.01  0.00  0.98  0.02  0.00  0.00  0.71  0.00
  YS02001920YS02001918    1.00   0.00  0.01  0.00  0.99  0.00  0.00  0.00  0.00  0.00
  YS02001923YS02001920    1.00   0.00  0.00  0.00  1.00  0.00  0.00  0.00  0.90  0.00
  YS02001926YS02001923    1.00   0.00  0.07  0.00  0.08  0.00  0.85  0.00  0.00  0.00
  YS02001929YS02001926    1.00   0.00  0.13  0.00  0.87  0.00  0.00  0.00  0.80  0.00
  YS02006553YS02006556    1.00   0.01  0.00  0.00  0.99  0.00  0.00  0.00  0.03  0.00
  YS02006556YS02006558    1.00   0.00  0.00  0.00  1.00  0.00  0.00  0.00  0.00  0.00
  YS02006558YS02006561    1.00   0.16  0.00  0.00  0.08  0.76  0.00  0.00  0.18  0.00
  YS02006561YS02001783    1.00   0.16  0.00  0.00  0.11  0.73  0.00  0.00  0.66  0.00
  YS02163301YS02001633    1.00   0.00  0.14  0.00  0.86  0.00  0.00  0.00  0.00  0.00
  YS02163601YS02164001    1.00   0.00  0.08  0.00  0.92  0.00  0.00  0.00  0.00  0.00
  YS02164001YS02001641    1.00   0.01  0.07  0.00  0.92  0.00  0.00  0.00  0.05  0.00
  
  
  *************************
  Conduit Surcharge Summary
  *************************
  
  ----------------------------------------------------------------------------
                                                           Hours        Hours 
                         --------- Hours Full --------   Above Full   Capacity
  Conduit                Both Ends  Upstream  Dnstream   Normal Flow   Limited
  ----------------------------------------------------------------------------
  WS02003072WS02003073        0.01      0.01      0.01      1.05         0.01
  WS02004404WS02004405        0.01      0.01      0.01      2.72         0.01
  WS02004405WS02004406        0.01      0.01      0.01      0.28         0.01
  WS02006109WS02006110        0.49      0.49      2.24      0.61         0.01
  WS02006110WS02006113        0.01      0.01      2.23      0.01         0.01
  WS02006111WS02006112        0.01      0.01      2.44      0.01         0.01
  WS02006112WS02006115        0.01      0.01      0.60      0.01         0.01
  WS02006228WS02006109        2.21      2.24      2.21      2.50         2.21
  WS02006229WS02006228        2.20      2.22      2.20      2.43         2.19
  WS02006230WS02006229        2.30      2.41      2.30      3.39         2.30
  WS02006231WS02006230        0.51      0.51      0.67      2.98         0.01
  WS02006232WS02006231        0.62      0.62      2.27      0.70         0.01
  WS02006234WS02006232        2.18      2.18      2.27      0.68         0.67
  WS02006235WS02006234        1.03      1.04      2.21      2.82         0.02
  WS02006238WS02006235        2.23      2.23      2.27      0.01         0.01
  WS02006239WS02006238        2.25      2.26      2.25      2.29         2.04
  WS02006240WS02006239        2.17      2.18      2.18      2.29         1.97
  WS02006242WS02006240        2.18      2.18      2.26      2.44         0.01
  WS02006243WS02006242        2.18      2.18      2.22      0.01         0.04
  WS02006245WS02006243        2.18      2.18      2.18      1.78         1.66
  WS02006247WS02006245        2.18      2.18      2.18      2.68         2.17
  WS02006248WS02006247        2.17      2.17      2.18      0.01         0.05
  WS02006249WS02006248        2.17      2.17      2.17      2.65         0.01
  WS02006251WS02006249        2.17      2.17      2.17      2.38         2.09
  WS02006252WS02006251        2.47      2.47      2.49      2.47         0.01
  WS02006256WS02006235        2.83      2.86      6.43      1.00         0.01
  YS02001580YS02001583        0.83      0.84      0.91      0.01         0.01
  YS02001583YS02001586        0.84      0.84      1.04      0.01         0.01
  YS02001586YS02001590        1.05      1.05      1.13      0.01         0.01
  YS02001590YS02001593        1.13      1.13      1.15      1.21         0.01
  YS02001593YS02001596        1.14      1.14      1.27      0.01         0.01
  YS02001596YS02001600        1.32      1.32      1.46      0.01         0.01
  YS02001600YS02001601        1.55      1.55      1.74      0.01         0.01
  YS02001601YS02001602        1.67      1.67      1.77      1.47         0.01
  YS02001602YS02001605        1.63      1.63      1.67      2.41         0.01
  YS02001605YS02001607        1.60      1.63      1.60      1.72         1.60
  YS02001607YS02001610        1.12      1.12      1.16      0.01         0.01
  YS02001610YS02001613        1.12      1.12      1.16      0.01         0.01
  YS02001613YS02001616        1.07      1.07      1.12      0.01         0.01
  YS02001616YS02001619        1.06      1.06      1.07      0.01         0.03
  YS02001619YS02001622        1.05      1.06      1.05      1.12         1.01
  YS02001622YS02001625        1.05      1.05      1.27      0.01         0.01
  YS02001625YS02001629        0.99      0.99      1.27      0.01         0.01
  YS02001629YS02163301        1.27      1.27      1.28      0.02         0.16
  YS02001633YS02163601        1.30      1.30      1.34      0.44         0.39
  YS02001641YS02001644        1.23      1.25      1.23      1.79         1.21
  YS02001644YS02001647        0.98      0.98      1.23      0.04         0.01
  YS02001647YS02001649        0.98      0.98      1.15      0.01         0.01
  YS02001649YS02001757        1.15      1.15      1.24      0.05         0.06
  YS02001652YS02001649        0.92      0.92      1.15      0.01         0.01
  YS02001655YS02001652        0.61      0.61      0.89      0.01         0.01
  YS02001658YS02001655        0.28      0.28      0.61      0.01         0.01
  YS02001661YS02001658        0.02      0.02      0.28      0.01         0.01
  YS02001664YS02001661        0.01      0.01      0.07      0.01         0.01
  YS02001745YS02001748        0.01      0.01      0.18      0.01         0.01
  YS02001748YS02001751        0.24      0.24      0.40      0.01         0.01
  YS02001751YS02001754        0.40      0.40      0.74      0.01         0.01
  YS02001754YS02001757        0.82      0.82      1.24      0.01         0.01
  YS02001757CaochengTiaoxuchi        1.12      1.24      1.88      0.48         0.34
  YS02001759YS02001757        1.12      1.12      1.24      0.06         0.06
  YS02001762YS02001759        1.08      1.08      1.12      0.01         0.02
  YS02001765YS02001762        1.02      1.02      1.08      0.01         0.01
  YS02001767YS02001765        0.97      0.97      1.02      0.01         0.03
  YS02001770YS02001767        0.97      0.97      0.97      0.71         0.66
  YS02001774YS02001770        0.93      0.93      1.05      0.01         0.01
  YS02001779YS02001774        0.72      0.72      1.05      0.01         0.01
  YS02001783YS02001784        0.68      0.71      0.68      0.88         0.68
  YS02001784YS02001785        0.56      0.68      0.56      1.23         0.56
  YS02001786YS02001788        0.01      0.56      0.01      1.04         0.01
  YS02001790YS02001791        0.01      0.01      0.01      0.66         0.01
  YS02001793JiankangQianchi        0.01      0.01      6.55      0.01         0.01
  YS02001882YS02001884        0.64      0.64      0.65      0.01         0.01
  YS02001884YS02001887        0.68      0.68      0.70      0.01         0.01
  YS02001887YS02001890        0.71      0.71      0.72      0.16         0.01
  YS02001890YS02001895        0.63      0.63      0.75      0.01         0.01
  YS02001895YS02001898        0.62      0.62      0.63      0.01         0.01
  YS02001898YS02001901        0.63      0.63      0.68      0.01         0.01
  YS02001901YS02001904        0.67      0.67      0.68      0.01         0.01
  YS02001904YS02001907        0.67      0.67      0.99      0.01         0.01
  YS02001907YS02006553        1.25      1.25      1.34      0.01         0.01
  YS02001910YS02001907        0.75      0.75      0.95      0.01         0.01
  YS02001915YS02001910        0.64      0.64      0.75      0.01         0.01
  YS02001918YS02001915        0.54      0.54      0.64      0.01         0.01
  YS02001920YS02001918        0.54      0.54      0.56      0.01         0.01
  YS02001923YS02001920        0.49      0.49      0.56      0.01         0.01
  YS02001926YS02001923        0.14      0.14      0.18      0.01         0.01
  YS02001929YS02001926        0.01      0.01      0.18      0.01         0.01
  YS02006553YS02006556        0.84      0.84      0.98      0.01         0.01
  YS02006556YS02006558        0.90      0.90      1.02      0.01         0.01
  YS02006558YS02006561        0.58      0.84      0.58      1.16         0.58
  YS02006561YS02001783        0.50      0.50      0.71      0.01         0.01
  YS02163301YS02001633        1.28      1.28      1.32      0.01         0.01
  YS02163601YS02164001        1.26      1.26      1.34      0.04         0.01
  YS02164001YS02001641        1.25      1.26      1.25      0.96         0.92
  
  
  ***************
  Pumping Summary
  ***************
  
  ---------------------------------------------------------------------------------------------------------
                                                  Min       Avg       Max     Total     Power    % Time Off
                        Percent   Number of      Flow      Flow      Flow    Volume     Usage    Pump Curve
  Pump                 Utilized   Start-Ups       LPS       LPS       LPS  10^6 ltr     Kw-hr    Low   High
  ---------------------------------------------------------------------------------------------------------
  CC-R1                   27.79          22      0.00    683.00    683.00     5.466    101.04    0.0   25.1
  CC-R2                   23.30          20      0.00    683.00    683.00     4.584     85.03    0.0   25.5
  CC-S1                   33.58          18      0.00    200.00    200.00     1.934     10.96    0.0    0.0
  CC-S2                   32.37          22      0.00    200.00    200.00     1.865     10.51    0.0    0.0
  JK-R1                   10.56          19      0.00   1000.00   1000.00     3.042     29.06    0.0    0.0
  JK-R2                    3.51          19      0.00   1000.00   1000.00     1.010      7.75    0.0    0.0
  JK-S                    12.05          36      0.00    300.00    300.00     1.041     18.14    0.0    0.0
  

  Analysis begun on:  Mon Dec 30 10:18:51 2024
  Analysis ended on:  Mon Dec 30 10:18:52 2024
  Total elapsed time: 00:00:01