
  EPA STORM WATER MANAGEMENT MODEL - VERSION 5.2 (Build 5.2.4)
  PYSWMM TOOLKIT API - VERSION v1.0 (2023-11-27)
  ------------------------------------------------------------

  WARNING 04: minimum elevation drop used for Conduit WS02004404WS02004405
  WARNING 03: negative offset ignored for Link YS02001904YS02001907
  
  ****************
  Analysis Options
  ****************
  Flow Units ............... LPS
  Process Models:
    Rainfall/Runoff ........ YES
    RDII ................... NO
    Snowmelt ............... NO
    Groundwater ............ NO
    Flow Routing ........... YES
    Ponding Allowed ........ NO
    Water Quality .......... NO
  Infiltration Method ...... HORTON
  Flow Routing Method ...... DYNWAVE
  Surcharge Method ......... EXTRAN
  Starting Date ............ 08/28/2015 08:00:00
  Ending Date .............. 08/28/2015 16:00:00
  Antecedent Dry Days ...... 8.0
  Report Time Step ......... 00:01:00
  Wet Time Step ............ 00:01:00
  Dry Time Step ............ 00:01:00
  Routing Time Step ........ 30.00 sec
  Variable Time Step ....... YES
  Maximum Trials ........... 8
  Number of Threads ........ 4
  Head Tolerance ........... 0.001500 m
  
  
  **************************        Volume         Depth
  Runoff Quantity Continuity     hectare-m            mm
  **************************     ---------       -------
  Total Precipitation ......         3.355       101.151
  Evaporation Loss .........         0.000         0.000
  Infiltration Loss ........         0.104         3.121
  Surface Runoff ...........         3.219        97.057
  Final Storage ............         0.033         0.996
  Continuity Error (%) .....        -0.023
  
  
  **************************        Volume        Volume
  Flow Routing Continuity        hectare-m      10^6 ltr
  **************************     ---------     ---------
  Dry Weather Inflow .......         0.025         0.251
  Wet Weather Inflow .......         3.219        32.192
  Groundwater Inflow .......         0.000         0.000
  RDII Inflow ..............         0.000         0.000
  External Inflow ..........         0.083         0.834
  External Outflow .........         2.019        20.190
  Flooding Loss ............         1.381        13.806
  Evaporation Loss .........         0.000         0.000
  Exfiltration Loss ........         0.000         0.000
  Initial Stored Volume ....         0.243         2.431
  Final Stored Volume ......         0.182         1.823
  Continuity Error (%) .....        -0.312
  
  
  *************************
  Highest Continuity Errors
  *************************
  Node YS02001583 (-7.60%)
  Node YS02001884 (4.96%)
  Node WS02006256 (-1.72%)
  
  
  ***************************
  Time-Step Critical Elements
  ***************************
  Link WS02006238WS02006235 (24.07%)
  Link WS02004404WS02004405 (21.83%)
  Link YS02001791YS02001793 (13.36%)
  Link WS02006252WS02006251 (9.99%)
  Link WS02006235WS02006234 (7.50%)
  
  
  ********************************
  Highest Flow Instability Indexes
  ********************************
  Link WS02006113WS02006111 (35)
  Link WS02006238WS02006235 (27)
  Link WS02006111WS02006112 (25)
  Link WS02004404WS02004405 (24)
  Link WS02006252WS02006251 (24)
  
  
  *********************************
  Most Frequent Nonconverging Nodes
  *********************************
  Node CC-1 (14.06%)
  Node CC-2 (14.06%)
  Node JK-1 (14.06%)
  Node JK-2 (14.06%)
  Node WSC (14.06%)
  
  
  *************************
  Routing Time Step Summary
  *************************
  Minimum Time Step           :     0.01 sec
  Average Time Step           :     2.92 sec
  Maximum Time Step           :     6.43 sec
  % of Time in Steady State   :     0.00
  Average Iterations per Step :     3.55
  % of Steps Not Converging   :    14.06
  Time Step Frequencies       :
     30.000 - 13.228 sec      :     0.00 %
     13.228 -  5.833 sec      :    13.85 %
      5.833 -  2.572 sec      :    29.72 %
      2.572 -  1.134 sec      :    40.38 %
      1.134 -  0.500 sec      :    16.06 %
  
  
  ***************************
  Subcatchment Runoff Summary
  ***************************
  
  ------------------------------------------------------------------------------------------------------------------------------
                            Total      Total      Total      Total     Imperv       Perv      Total       Total     Peak  Runoff
                           Precip      Runon       Evap      Infil     Runoff     Runoff     Runoff      Runoff   Runoff   Coeff
  Subcatchment                 mm         mm         mm         mm         mm         mm         mm    10^6 ltr      LPS
  ------------------------------------------------------------------------------------------------------------------------------
  sub60                    101.15       0.00       0.00       1.89      87.82      10.26      98.08        1.29   766.80   0.970
  sub61                    101.15       0.00       0.00       2.73      82.83      14.47      97.30        1.79  1062.15   0.962
  sub62                    101.15       0.00       0.00       1.26      91.78       6.84      98.62        2.70  1507.21   0.975
  sub63                    101.15       0.00       0.00       5.02      70.86      24.32      95.17        2.16  1192.86   0.941
  sub64                    101.15       0.00       0.00       2.54      84.78      12.63      97.41        2.34  1231.60   0.963
  sub65                    101.15       0.00       0.00       2.20      86.75      10.95      97.71        2.69  1379.93   0.966
  sub66                    101.15       0.00       0.00       6.17      70.74      23.17      93.92        4.38  1820.86   0.928
  sub67                    101.15       0.00       0.00       1.21      91.83       6.89      98.71        1.84  1154.74   0.976
  sub68                    101.15       0.00       0.00       2.26      85.81      11.90      97.71        2.69  1543.36   0.966
  sub69                    101.15       0.00       0.00       2.03      85.87      13.15      99.02        3.67  1839.08   0.979
  sub70                    101.15       0.00       0.00       6.69      66.60      27.70      94.30        2.72  1026.70   0.932
  sub71                    101.15       0.00       0.00       1.29      91.74       6.81      98.54        2.58  1335.04   0.974
  sub72                    101.15       0.00       0.00       1.15      92.67       5.94      98.61        1.36   648.24   0.975
  
  
  ******************
  Node Depth Summary
  ******************
  
  ---------------------------------------------------------------------------------
                                 Average  Maximum  Maximum  Time of Max    Reported
                                   Depth    Depth      HGL   Occurrence   Max Depth
  Node                 Type       Meters   Meters   Meters  days hr:min      Meters
  ---------------------------------------------------------------------------------
  WS02003060           JUNCTION     0.23     0.38     5.32     0  02:10        0.38
  WS02003066           JUNCTION     0.19     0.30     5.85     0  02:09        0.30
  WS02003067           JUNCTION     0.49     0.70     6.02     0  02:09        0.70
  WS02003069           JUNCTION     0.25     0.43     5.02     0  02:11        0.43
  WS02003072           JUNCTION     0.31     0.50     4.87     0  02:12        0.50
  WS02003073           JUNCTION     0.18     0.30     4.36     0  02:13        0.30
  WS02004401           JUNCTION     0.58     0.88     6.88     0  02:10        0.88
  WS02004402           JUNCTION     0.61     0.91     6.87     0  02:09        0.90
  WS02004403           JUNCTION     0.64     0.92     6.85     0  02:04        0.92
  WS02004404           JUNCTION     0.71     1.04     6.89     0  02:02        1.00
  WS02004405           JUNCTION     0.70     0.97     6.82     0  02:09        0.97
  WS02004406           JUNCTION     0.71     0.96     6.79     0  02:09        0.96
  WS02004407           JUNCTION     0.17     0.30     6.61     0  02:10        0.30
  WS02004409           JUNCTION     0.38     0.67     6.44     0  02:10        0.67
  WS02004410           JUNCTION     0.40     0.68     6.40     0  02:10        0.68
  WS02004411           JUNCTION     0.42     0.69     6.37     0  02:10        0.69
  WS02004412           JUNCTION     0.44     0.70     6.34     0  02:11        0.70
  WS02004413           JUNCTION     0.60     0.86     6.33     0  02:09        0.86
  WS02006109           JUNCTION     0.64     1.13     7.75     0  03:01        1.02
  WS02006110           JUNCTION     0.64     1.16     7.75     0  03:01        1.02
  WS02006111           JUNCTION     0.17     0.29     6.99     0  01:59        0.29
  WS02006112           JUNCTION     0.74     1.09     6.97     0  02:29        1.07
  WS02006113           JUNCTION     0.26     0.46     7.35     0  03:02        0.45
  WS02006115           JUNCTION     0.47     0.78     6.91     0  02:06        0.78
  WS02006116           JUNCTION     0.55     0.86     6.90     0  02:05        0.86
  WS02006228           JUNCTION     0.64     1.24     7.89     0  03:00        1.03
  WS02006229           JUNCTION     0.62     1.30     8.00     0  03:00        1.04
  WS02006230           JUNCTION     0.63     1.51     8.26     0  03:00        1.15
  WS02006231           JUNCTION     0.43     1.20     8.32     0  03:00        0.91
  WS02006232           JUNCTION     0.57     1.32     8.36     0  03:00        1.25
  WS02006234           JUNCTION     0.51     1.32     8.48     0  03:02        1.32
  WS02006235           JUNCTION     0.55     1.45     8.62     0  02:35        1.32
  WS02006238           JUNCTION     0.58     1.50     8.64     0  02:35        1.33
  WS02006239           JUNCTION     0.55     1.49     8.70     0  01:37        1.31
  WS02006240           JUNCTION     0.52     1.43     8.72     0  01:40        1.26
  WS02006242           JUNCTION     0.58     1.47     8.74     0  01:40        1.33
  WS02006243           JUNCTION     0.51     1.48     8.90     0  01:37        1.22
  WS02006245           JUNCTION     0.51     1.27     8.76     0  01:40        1.18
  WS02006247           JUNCTION     0.52     1.28     8.78     0  01:37        1.18
  WS02006248           JUNCTION     0.49     1.10     8.69     0  01:37        1.10
  WS02006249           JUNCTION     0.52     1.09     8.69     0  01:37        1.09
  WS02006251           JUNCTION     0.52     1.81     9.48     0  03:00        1.13
  WS02006252           JUNCTION     0.34     1.50     9.74     0  00:00        0.70
  WS02006256           JUNCTION     1.13     2.35     9.28     0  00:00        2.35
  WSF200               JUNCTION     0.16     0.29     5.53     0  02:09        0.29
  YS02001580           JUNCTION     0.19     1.05     9.59     0  01:31        1.05
  YS02001583           JUNCTION     0.22     1.11     9.61     0  01:31        0.82
  YS02001586           JUNCTION     0.34     1.13     9.30     0  01:31        1.13
  YS02001590           JUNCTION     0.46     1.40     9.26     0  01:31        1.37
  YS02001593           JUNCTION     0.39     1.46     9.32     0  01:29        1.29
  YS02001596           JUNCTION     0.53     1.80     9.22     0  01:29        1.65
  YS02001600           JUNCTION     0.62     1.87     9.00     0  01:29        1.87
  YS02001601           JUNCTION     0.81     2.06     8.90     0  01:29        2.06
  YS02001602           JUNCTION     0.71     1.87     8.77     0  01:31        1.87
  YS02001605           JUNCTION     0.66     1.78     8.68     0  01:31        1.78
  YS02001607           JUNCTION     0.63     1.68     8.53     0  01:38        1.68
  YS02001610           JUNCTION     0.67     1.68     8.48     0  01:31        1.68
  YS02001613           JUNCTION     0.63     1.68     8.52     0  01:38        1.67
  YS02001616           JUNCTION     0.57     1.61     8.52     0  01:31        1.61
  YS02001619           JUNCTION     0.55     1.61     8.54     0  01:31        1.61
  YS02001622           JUNCTION     0.54     1.62     8.52     0  01:38        1.59
  YS02001625           JUNCTION     0.78     1.78     8.38     0  01:31        1.78
  YS02001629           JUNCTION     0.69     1.85     8.40     0  01:31        1.85
  YS02001633           JUNCTION     0.76     2.08     8.53     0  01:33        2.08
  YS02001641           JUNCTION     0.73     2.08     8.52     0  01:38        2.08
  YS02001644           JUNCTION     0.72     1.92     8.35     0  01:34        1.92
  YS02001647           JUNCTION     0.52     1.90     8.51     0  01:38        1.90
  YS02001649           JUNCTION     0.60     2.05     8.44     0  01:35        2.05
  YS02001652           JUNCTION     0.48     2.16     8.76     0  01:35        1.87
  YS02001655           JUNCTION     0.38     2.20     9.05     0  01:35        1.69
  YS02001658           JUNCTION     0.28     2.30     9.44     0  01:35        1.61
  YS02001661           JUNCTION     0.25     2.46     9.86     0  01:35        1.29
  YS02001664           JUNCTION     0.10     2.31    10.23     0  01:35        0.83
  YS02001745           JUNCTION     0.14     2.35     9.87     0  01:35        0.91
  YS02001748           JUNCTION     0.27     2.27     9.35     0  01:35        1.33
  YS02001751           JUNCTION     0.34     2.20     9.08     0  01:35        1.92
  YS02001754           JUNCTION     0.44     2.20     8.81     0  01:35        1.97
  YS02001757           JUNCTION     0.62     2.21     8.47     0  01:35        2.18
  YS02001759           JUNCTION     0.56     2.21     8.57     0  01:35        2.21
  YS02001762           JUNCTION     0.55     2.15     8.55     0  01:35        2.10
  YS02001765           JUNCTION     0.53     2.10     8.55     0  01:35        1.97
  YS02001767           JUNCTION     0.52     2.03     8.52     0  01:35        2.03
  YS02001770           JUNCTION     0.53     1.95     8.44     0  01:34        1.95
  YS02001774           JUNCTION     0.59     2.01     8.44     0  01:35        2.00
  YS02001779           JUNCTION     0.42     1.68     8.37     0  01:34        1.68
  YS02001783           JUNCTION     0.35     1.37     7.51     0  01:33        1.24
  YS02001784           JUNCTION     0.36     1.23     7.29     0  01:33        1.12
  YS02001786           JUNCTION     0.29     0.96     6.99     0  01:38        0.88
  YS02001788           JUNCTION     0.21     0.63     6.61     0  01:36        0.63
  YS02001790           JUNCTION     0.25     0.73     6.38     0  01:39        0.72
  YS02001791           JUNCTION     0.16     0.44     5.91     0  01:39        0.44
  YS02001793           JUNCTION     0.08     0.30     5.14     0  01:34        0.29
  YS02001882           JUNCTION     0.44     1.79     8.50     0  01:38        1.79
  YS02001884           JUNCTION     0.53     1.88     8.49     0  01:38        1.88
  YS02001887           JUNCTION     0.61     2.00     8.54     0  01:38        2.00
  YS02001890           JUNCTION     0.63     1.81     8.32     0  01:33        1.81
  YS02001895           JUNCTION     0.41     1.57     8.32     0  01:33        1.56
  YS02001898           JUNCTION     0.42     1.58     8.31     0  01:33        1.57
  YS02001901           JUNCTION     0.53     1.69     8.30     0  01:38        1.68
  YS02001904           JUNCTION     0.51     1.85     8.48     0  01:38        1.85
  YS02001907           JUNCTION     0.82     1.96     8.25     0  01:33        1.96
  YS02001910           JUNCTION     0.63     2.03     8.54     0  01:38        2.03
  YS02001915           JUNCTION     0.46     2.00     8.72     0  01:38        2.00
  YS02001918           JUNCTION     0.29     1.81     8.88     0  01:34        1.81
  YS02001920           JUNCTION     0.37     2.14     9.15     0  01:38        2.14
  YS02001923           JUNCTION     0.23     2.03     9.29     0  01:34        2.03
  YS02001926           JUNCTION     0.25     1.90     9.35     0  01:34        1.90
  YS02001929           JUNCTION     0.16     1.78     9.47     0  01:33        1.16
  YS02006553           JUNCTION     0.82     2.19     8.47     0  01:38        2.19
  YS02006556           JUNCTION     0.79     2.39     8.70     0  01:38        2.39
  YS02006558           JUNCTION     0.83     2.50     8.77     0  01:38        2.50
  YS02006561           JUNCTION     0.23     1.05     7.71     0  01:33        0.91
  YS02163301           JUNCTION     0.71     2.03     8.55     0  01:38        2.03
  YS02163601           JUNCTION     0.79     2.08     8.48     0  01:33        2.08
  YS02164001           JUNCTION     0.72     2.03     8.49     0  01:33        1.94
  CC-1                 OUTFALL      0.00     0.00     0.00     0  00:00        0.00
  CC-2                 OUTFALL      0.00     0.00     0.00     0  00:00        0.00
  JK-1                 OUTFALL      0.00     0.00     0.00     0  00:00        0.00
  JK-2                 OUTFALL      0.00     0.00     0.00     0  00:00        0.00
  WSC                  OUTFALL      0.18     0.30     0.97     0  02:13        0.30
  CC-storage           STORAGE      0.95     1.85     7.35     0  02:27        1.85
  JK-storage           STORAGE      1.63     4.22     5.02     0  01:34        4.18
  
  
  *******************
  Node Inflow Summary
  *******************
  
  -------------------------------------------------------------------------------------------------
                                  Maximum  Maximum                  Lateral       Total        Flow
                                  Lateral    Total  Time of Max      Inflow      Inflow     Balance
                                   Inflow   Inflow   Occurrence      Volume      Volume       Error
  Node                 Type           LPS      LPS  days hr:min    10^6 ltr    10^6 ltr     Percent
  -------------------------------------------------------------------------------------------------
  WS02003060           JUNCTION     16.53   557.34     0  02:10       0.476        5.13       0.045
  WS02003066           JUNCTION      0.00   540.42     0  02:09           0        4.65       0.032
  WS02003067           JUNCTION      0.00   540.28     0  02:09           0        4.66       0.090
  WS02003069           JUNCTION      0.32   557.59     0  02:10     0.00922        5.13       0.079
  WS02003072           JUNCTION      0.00   557.32     0  02:11           0        5.13       0.140
  WS02003073           JUNCTION      1.82   558.99     0  02:12      0.0524        5.17       0.112
  WS02004401           JUNCTION      0.00   540.18     0  02:10           0        4.76       0.223
  WS02004402           JUNCTION      0.00   542.55     0  02:10           0        4.75       0.225
  WS02004403           JUNCTION      0.00   542.11     0  02:10           0        4.73       0.217
  WS02004404           JUNCTION      0.16   563.13     0  02:04     0.00467        4.73       0.119
  WS02004405           JUNCTION      0.04   607.87     0  02:06      0.0011        4.72       0.226
  WS02004406           JUNCTION      0.00   548.60     0  02:07           0        4.71       0.453
  WS02004407           JUNCTION      0.00   542.26     0  02:09           0        4.69       0.027
  WS02004409           JUNCTION      0.00   541.58     0  02:10           0        4.69       0.061
  WS02004410           JUNCTION      0.00   540.92     0  02:10           0        4.69       0.099
  WS02004411           JUNCTION      0.00   540.71     0  02:08           0        4.68       0.123
  WS02004412           JUNCTION      0.00   540.69     0  02:08           0        4.68       0.163
  WS02004413           JUNCTION      0.00   540.50     0  02:11           0        4.67       0.295
  WS02006109           JUNCTION      1.23   560.95     0  03:01      0.0354        4.81       0.210
  WS02006110           JUNCTION      0.00   560.88     0  03:00           0         4.8       0.149
  WS02006111           JUNCTION      0.00   562.24     0  02:17           0        4.79       0.022
  WS02006112           JUNCTION      0.00   542.64     0  01:59           0        4.79       0.430
  WS02006113           JUNCTION      0.00   567.27     0  02:16           0        4.79       0.044
  WS02006115           JUNCTION      0.00   553.58     0  02:18           0        4.77       0.156
  WS02006116           JUNCTION      0.00   539.07     0  02:05           0        4.76       0.081
  WS02006228           JUNCTION      0.00   559.16     0  03:01           0        4.78       0.088
  WS02006229           JUNCTION      0.00   559.40     0  03:01           0        4.78       0.125
  WS02006230           JUNCTION     10.28   590.38     0  01:40       0.296        4.79       0.104
  WS02006231           JUNCTION      0.00   573.87     0  02:15           0        4.49       0.028
  WS02006232           JUNCTION      0.00   572.97     0  02:15           0         4.5       0.214
  WS02006234           JUNCTION      0.00   568.49     0  02:15           0        4.49      -0.324
  WS02006235           JUNCTION      0.00   561.93     0  02:15           0         4.6       0.337
  WS02006238           JUNCTION      0.00   423.79     0  02:10           0        3.46      -0.138
  WS02006239           JUNCTION      0.00   422.76     0  02:10           0        3.39      -0.076
  WS02006240           JUNCTION      0.00   420.53     0  02:10           0        3.35      -0.057
  WS02006242           JUNCTION      0.00   420.72     0  02:10           0        3.33      -0.060
  WS02006243           JUNCTION      0.00   419.85     0  02:10           0        3.32      -0.207
  WS02006245           JUNCTION      0.00   419.07     0  02:10           0        3.33       0.367
  WS02006247           JUNCTION      0.00   419.34     0  02:10           0        3.32      -0.075
  WS02006248           JUNCTION      0.00   420.14     0  02:30           0        3.32      -0.107
  WS02006249           JUNCTION      0.00   488.17     0  01:30           0        3.65       0.521
  WS02006251           JUNCTION      0.08   406.70     0  03:00     0.00222        3.65       0.048
  WS02006252           JUNCTION      0.00   400.00     0  00:00           0        3.63      -0.469
  WS02006256           JUNCTION      0.00   300.00     0  00:00           0         1.7      -1.695
  WSF200               JUNCTION      0.00   540.49     0  02:09           0        4.65       0.010
  YS02001580           JUNCTION      0.00   125.60     0  01:31           0     0.00433      -1.842
  YS02001583           JUNCTION      0.00   204.33     0  01:31           0       0.015      -7.063
  YS02001586           JUNCTION   1026.70  1026.70     0  01:42        2.72        2.74       0.057
  YS02001590           JUNCTION      0.00   322.78     0  01:38           0        1.77      -0.036
  YS02001593           JUNCTION      0.00   322.50     0  01:38           0        1.78       0.001
  YS02001596           JUNCTION      0.00   318.14     0  01:55           0        1.78      -0.014
  YS02001600           JUNCTION      0.00   318.02     0  01:45           0        1.78       0.005
  YS02001601           JUNCTION   1839.08  2156.65     0  01:40        3.67        5.44       0.010
  YS02001602           JUNCTION      0.00   559.59     0  01:31           0         2.8       0.013
  YS02001605           JUNCTION      0.00   559.45     0  01:31           0        2.58       0.015
  YS02001607           JUNCTION      0.00   559.61     0  01:31           0        2.58       0.069
  YS02001610           JUNCTION      0.00   954.00     0  01:46           0        3.27       0.063
  YS02001613           JUNCTION      0.00   617.77     0  01:45           0        2.45       0.066
  YS02001616           JUNCTION      0.00   617.62     0  01:45           0        2.45       0.004
  YS02001619           JUNCTION   1820.86  1820.86     0  01:42        4.38        6.15      -0.001
  YS02001622           JUNCTION      0.00  1058.30     0  01:38           0        5.41      -0.007
  YS02001625           JUNCTION      0.00  1504.20     0  01:46           0        5.85       0.164
  YS02001629           JUNCTION      0.00   939.57     0  01:31           0         4.1      -0.023
  YS02001633           JUNCTION   1380.13  1437.00     0  01:33         2.7        6.16       0.053
  YS02001641           JUNCTION      0.00  1439.81     0  01:33           0        5.54       0.045
  YS02001644           JUNCTION   1231.63  1905.01     0  01:40        2.34        7.88       0.029
  YS02001647           JUNCTION      0.00  1906.11     0  01:33           0        6.59       0.001
  YS02001649           JUNCTION      0.00  2200.56     0  01:33           0        8.75      -0.004
  YS02001652           JUNCTION      0.00  1208.29     0  01:38           0        2.16      -0.083
  YS02001655           JUNCTION      0.15  1207.85     0  01:38     0.00443        2.17       0.046
  YS02001658           JUNCTION      0.00  1207.75     0  01:38           0        2.16      -0.057
  YS02001661           JUNCTION      0.00  1207.31     0  01:38           0        2.16       0.004
  YS02001664           JUNCTION   1192.86  1192.86     0  01:39        2.16        2.16      -0.014
  YS02001745           JUNCTION    766.80   766.80     0  01:39        1.29        1.29       0.152
  YS02001748           JUNCTION      0.04   790.16     0  01:38      0.0013        1.29      -0.314
  YS02001751           JUNCTION      0.01   790.22     0  01:38    0.000317         1.3       0.082
  YS02001754           JUNCTION      0.26   790.93     0  01:38     0.00749        1.31      -0.169
  YS02001757           JUNCTION      0.00  3623.72     0  01:35           0        13.9       0.040
  YS02001759           JUNCTION   1062.19  1549.78     0  01:35        1.79        3.86      -0.012
  YS02001762           JUNCTION      0.00   865.82     0  01:35           0        2.08      -0.014
  YS02001765           JUNCTION      0.00   867.68     0  01:35           0        2.08       0.007
  YS02001767           JUNCTION      0.54   868.54     0  01:35      0.0154        2.08      -0.006
  YS02001770           JUNCTION   1507.37  1507.37     0  01:39        2.71        2.75      -0.025
  YS02001774           JUNCTION      0.00   851.84     0  01:41           0        0.66       0.141
  YS02001779           JUNCTION      0.01   851.56     0  01:41    0.000144       0.614      -0.261
  YS02001783           JUNCTION      0.00  1186.73     0  01:38           0         5.4       0.001
  YS02001784           JUNCTION      1.06  1186.49     0  01:38      0.0305        5.43       0.008
  YS02001786           JUNCTION      0.06  1184.98     0  01:38     0.00162        5.43       0.012
  YS02001788           JUNCTION      0.07  1181.16     0  01:38     0.00204        5.44       0.006
  YS02001790           JUNCTION      0.15  1182.40     0  01:37     0.00446        5.44       0.043
  YS02001791           JUNCTION      0.00  1299.33     0  01:39           0        5.44      -0.044
  YS02001793           JUNCTION      0.00  1255.50     0  01:40           0        5.44       0.003
  YS02001882           JUNCTION      0.00    65.18     0  01:32           0       0.014       4.626
  YS02001884           JUNCTION      0.00   115.40     0  01:31           0      0.0509       5.219
  YS02001887           JUNCTION   1155.19  1167.05     0  01:38        1.85        1.88       0.209
  YS02001890           JUNCTION      0.00  1172.61     0  01:38           0        1.84       0.257
  YS02001895           JUNCTION      0.00   532.46     0  01:33           0        1.52       0.131
  YS02001898           JUNCTION      0.00   530.29     0  01:33           0        1.52      -0.000
  YS02001901           JUNCTION      0.00   530.84     0  01:38           0        1.52       0.208
  YS02001904           JUNCTION      0.00   527.40     0  01:33           0        1.53       0.170
  YS02001907           JUNCTION      0.00  2855.08     0  01:39           0        5.66       0.306
  YS02001910           JUNCTION      0.00  1982.53     0  01:40           0        4.01       0.174
  YS02001915           JUNCTION   1335.06  1983.09     0  01:39        2.58        4.06       0.033
  YS02001918           JUNCTION      0.00   652.32     0  01:41           0        1.52       0.008
  YS02001920           JUNCTION      2.87   652.08     0  01:41      0.0827         1.5       0.017
  YS02001923           JUNCTION      0.04   648.84     0  01:41     0.00109         1.4      -0.091
  YS02001926           JUNCTION      0.05   882.77     0  01:33      0.0015        1.38      -0.070
  YS02001929           JUNCTION    648.24   750.53     0  01:33        1.36        1.36      -0.096
  YS02006553           JUNCTION      0.00   791.85     0  02:10           0        2.99       0.389
  YS02006556           JUNCTION      0.00   791.26     0  02:10           0           3       0.252
  YS02006558           JUNCTION   1544.24  1544.24     0  01:39        2.71        5.56       0.061
  YS02006561           JUNCTION      0.00  1185.05     0  01:38           0         5.4      -0.007
  YS02163301           JUNCTION      0.00   924.11     0  01:33           0        4.09       0.035
  YS02163601           JUNCTION      0.11  1436.69     0  01:33     0.00317        5.54       0.085
  YS02164001           JUNCTION      0.00  1435.38     0  01:33           0        5.54       0.036
  CC-1                 OUTFALL       0.00   683.00     0  00:00           0        5.85       0.000
  CC-2                 OUTFALL       0.00   683.00     0  00:00           0        5.31       0.000
  JK-1                 OUTFALL       0.00  1000.00     0  00:00           0        2.09       0.000
  JK-2                 OUTFALL       0.00  1000.00     0  00:00           0        1.78       0.000
  WSC                  OUTFALL       0.00   558.85     0  02:13           0        5.17       0.000
  CC-storage           STORAGE       0.00  3623.81     0  01:35           0        16.1      -0.201
  JK-storage           STORAGE       0.00  1280.39     0  01:55           0        5.59      -0.308
  
  
  **********************
  Node Surcharge Summary
  **********************
  
  Surcharging occurs when water rises above the top of the highest conduit.
  ---------------------------------------------------------------------
                                               Max. Height   Min. Depth
                                   Hours       Above Crown    Below Rim
  Node                 Type      Surcharged         Meters       Meters
  ---------------------------------------------------------------------
  WS02004404           JUNCTION        0.05          0.042        2.738
  WS02006109           JUNCTION        2.16          0.312        1.508
  WS02006110           JUNCTION        1.10          0.252        1.598
  WS02006112           JUNCTION        1.20          0.088        1.592
  WS02006228           JUNCTION        2.16          0.408        1.792
  WS02006229           JUNCTION        2.17          0.503        1.947
  WS02006230           JUNCTION        1.13          0.430        1.140
  WS02006231           JUNCTION        1.21          0.492        1.038
  WS02006232           JUNCTION        2.20          0.618        0.862
  WS02006234           JUNCTION        1.48          0.602        0.638
  WS02006235           JUNCTION        2.16          0.743        0.547
  WS02006238           JUNCTION        2.18          0.779        0.651
  WS02006239           JUNCTION        2.17          0.746        0.544
  WS02006240           JUNCTION        2.15          0.717        0.673
  WS02006242           JUNCTION        2.20          0.740        0.080
  WS02006243           JUNCTION        2.14          0.770        0.000
  WS02006245           JUNCTION        2.14          0.562        0.288
  WS02006247           JUNCTION        2.14          0.567        0.193
  WS02006248           JUNCTION        2.13          0.380        0.000
  WS02006249           JUNCTION        2.13          0.390        0.000
  WS02006251           JUNCTION        1.26          0.781        0.399
  WS02006252           JUNCTION        2.47          1.100        0.000
  WS02006256           JUNCTION        6.87          2.050        0.000
  YS02001580           JUNCTION        1.01          0.450        0.000
  YS02001583           JUNCTION        1.01          0.472        0.028
  YS02001586           JUNCTION        1.23          0.510        0.000
  YS02001590           JUNCTION        1.33          0.750        0.000
  YS02001593           JUNCTION        1.33          0.840        0.000
  YS02001596           JUNCTION        1.47          1.070        0.000
  YS02001600           JUNCTION        1.62          1.190        0.000
  YS02001601           JUNCTION        1.83          1.440        0.000
  YS02001602           JUNCTION        1.76          1.270        0.000
  YS02001605           JUNCTION        1.73          1.180        0.000
  YS02001607           JUNCTION        1.35          0.680        0.000
  YS02001610           JUNCTION        1.38          0.680        0.000
  YS02001613           JUNCTION        1.35          0.681        0.019
  YS02001616           JUNCTION        1.30          0.610        0.000
  YS02001619           JUNCTION        1.28          0.610        0.000
  YS02001622           JUNCTION        1.28          0.620        0.000
  YS02001625           JUNCTION        1.50          0.780        0.000
  YS02001629           JUNCTION        1.22          0.470        0.000
  YS02001633           JUNCTION        1.54          1.060        0.000
  YS02001641           JUNCTION        1.51          1.080        0.020
  YS02001644           JUNCTION        1.48          0.920        0.000
  YS02001647           JUNCTION        1.24          0.900        0.000
  YS02001649           JUNCTION        1.42          1.050        0.000
  YS02001652           JUNCTION        1.16          1.130        0.000
  YS02001655           JUNCTION        0.91          1.200        0.000
  YS02001658           JUNCTION        0.46          1.300        0.000
  YS02001661           JUNCTION        0.17          1.390        0.000
  YS02001664           JUNCTION        0.01          1.310        0.000
  YS02001745           JUNCTION        0.01          1.350        0.000
  YS02001748           JUNCTION        0.34          1.190        0.000
  YS02001751           JUNCTION        0.68          1.200        0.000
  YS02001754           JUNCTION        1.07          1.150        0.000
  YS02001757           JUNCTION        1.49          1.210        0.000
  YS02001759           JUNCTION        1.39          1.210        0.000
  YS02001762           JUNCTION        1.36          1.150        0.000
  YS02001765           JUNCTION        1.31          1.100        0.000
  YS02001767           JUNCTION        1.26          1.030        0.000
  YS02001770           JUNCTION        1.22          0.920        0.000
  YS02001774           JUNCTION        1.34          1.014        0.036
  YS02001779           JUNCTION        1.04          0.680        0.000
  YS02001783           JUNCTION        0.84          0.571        1.029
  YS02001784           JUNCTION        0.81          0.426        1.064
  YS02001786           JUNCTION        0.68          0.155        1.275
  YS02001882           JUNCTION        0.76          0.789        0.041
  YS02001884           JUNCTION        0.78          0.818        0.052
  YS02001887           JUNCTION        0.83          0.950        0.000
  YS02001890           JUNCTION        0.84          0.760        0.000
  YS02001895           JUNCTION        0.75          0.571        0.179
  YS02001898           JUNCTION        0.74          0.546        0.194
  YS02001901           JUNCTION        0.81          0.691        0.179
  YS02001904           JUNCTION        0.79          0.850        0.000
  YS02001907           JUNCTION        1.09          0.950        0.000
  YS02001910           JUNCTION        0.88          1.031        0.069
  YS02001915           JUNCTION        0.76          1.000        0.000
  YS02001918           JUNCTION        0.66          0.810        0.000
  YS02001920           JUNCTION        0.68          1.140        0.000
  YS02001923           JUNCTION        0.26          0.820        0.000
  YS02001926           JUNCTION        0.29          0.900        0.000
  YS02001929           JUNCTION        0.14          0.780        0.000
  YS02006553           JUNCTION        1.13          1.190        0.000
  YS02006556           JUNCTION        0.98          1.350        0.000
  YS02006558           JUNCTION        0.97          1.400        0.000
  YS02006561           JUNCTION        0.62          0.247        0.903
  YS02163301           JUNCTION        1.52          1.030        0.000
  YS02163601           JUNCTION        1.57          1.080        0.000
  YS02164001           JUNCTION        1.50          1.032        0.068
  
  
  *********************
  Node Flooding Summary
  *********************
  
  Flooding refers to all water that overflows a node, whether it ponds or not.
  --------------------------------------------------------------------------
                                                             Total   Maximum
                                 Maximum   Time of Max       Flood    Ponded
                        Hours       Rate    Occurrence      Volume     Depth
  Node                 Flooded       LPS   days hr:min    10^6 ltr    Meters
  --------------------------------------------------------------------------
  WS02006243              0.01    113.65      0  01:37       0.000     0.000
  WS02006248              0.01     41.04      0  01:37       0.000     0.000
  WS02006249              1.23    110.24      0  01:37       0.306     0.000
  WS02006252              0.01    245.63      0  00:00       0.000     0.000
  WS02006256              1.57    293.19      0  00:00       0.548     0.000
  YS02001580              0.01     90.49      0  01:31       0.000     0.000
  YS02001586              0.83    709.03      0  01:42       0.949     0.000
  YS02001590              0.01      2.41      0  01:31       0.000     0.000
  YS02001593              0.01     33.75      0  01:29       0.000     0.000
  YS02001596              0.01      3.51      0  01:29       0.000     0.000
  YS02001600              0.01      3.75      0  01:31       0.000     0.000
  YS02001601              1.13   1758.66      0  01:40       2.645     0.000
  YS02001602              1.03     62.00      0  01:43       0.211     0.000
  YS02001605              0.01      3.38      0  01:31       0.000     0.000
  YS02001607              0.01      0.26      0  01:38       0.000     0.000
  YS02001610              0.90    953.37      0  01:46       1.499     0.000
  YS02001616              0.05      3.27      0  01:53       0.000     0.000
  YS02001619              0.15    157.25      0  01:41       0.050     0.000
  YS02001622              0.01     27.98      0  01:38       0.000     0.000
  YS02001625              0.87   1504.04      0  01:46       2.364     0.000
  YS02001629              0.23    441.09      0  01:37       0.194     0.000
  YS02001633              0.01      6.71      0  01:33       0.000     0.000
  YS02001644              0.37   1827.32      0  01:40       1.275     0.000
  YS02001647              0.01      0.42      0  01:38       0.000     0.000
  YS02001649              0.01    135.35      0  01:35       0.002     0.000
  YS02001652              0.01     49.92      0  01:35       0.000     0.000
  YS02001655              0.01     85.52      0  01:35       0.000     0.000
  YS02001658              0.01    452.65      0  01:35       0.001     0.000
  YS02001661              0.01    325.47      0  01:35       0.000     0.000
  YS02001664              0.01    127.62      0  01:35       0.000     0.000
  YS02001745              0.01    181.24      0  01:35       0.000     0.000
  YS02001748              0.01    559.74      0  01:35       0.001     0.000
  YS02001751              0.01     24.06      0  01:35       0.000     0.000
  YS02001754              0.01     42.89      0  01:35       0.000     0.000
  YS02001757              0.01     13.10      0  01:35       0.000     0.000
  YS02001759              0.01      4.07      0  01:35       0.000     0.000
  YS02001762              0.01      9.92      0  01:35       0.000     0.000
  YS02001765              0.01      6.69      0  01:35       0.000     0.000
  YS02001767              0.01      2.90      0  01:35       0.000     0.000
  YS02001770              0.12    210.20      0  01:38       0.050     0.000
  YS02001779              0.33    851.28      0  01:41       0.595     0.000
  YS02001887              0.01      1.74      0  01:38       0.000     0.000
  YS02001890              0.29    655.96      0  01:38       0.318     0.000
  YS02001904              0.01      0.78      0  01:38       0.000     0.000
  YS02001907              0.59   2854.44      0  01:40       2.788     0.000
  YS02001915              0.01     37.55      0  01:38       0.000     0.000
  YS02001918              0.01    172.43      0  01:34       0.003     0.000
  YS02001920              0.01      2.37      0  01:38       0.000     0.000
  YS02001923              0.01    107.33      0  01:34       0.000     0.000
  YS02001926              0.01    657.23      0  01:34       0.005     0.000
  YS02001929              0.01    315.94      0  01:33       0.001     0.000
  YS02006553              0.01      1.51      0  01:38       0.000     0.000
  YS02006556              0.01      0.47      0  01:38       0.000     0.000
  YS02006558              0.01      0.53      0  01:38       0.000     0.000
  YS02163301              0.01      0.34      0  01:38       0.000     0.000
  YS02163601              0.01     10.12      0  01:33       0.000     0.000
  
  
  **********************
  Storage Volume Summary
  **********************
  
  ------------------------------------------------------------------------------------------------
                         Average    Avg   Evap  Exfil     Maximum    Max    Time of Max    Maximum
                          Volume   Pcnt   Pcnt   Pcnt      Volume   Pcnt     Occurrence    Outflow
  Storage Unit           1000 m³   Full   Loss   Loss     1000 m³   Full    days hr:min        LPS
  ------------------------------------------------------------------------------------------------
  CC-storage               2.640   41.2    0.0    0.0       5.169   80.6       0  02:27    1783.53
  JK-storage               0.082   28.1    0.0    0.0       0.212   72.8       0  01:34    2300.00
  
  
  ***********************
  Outfall Loading Summary
  ***********************
  
  -----------------------------------------------------------
                         Flow       Avg       Max       Total
                         Freq      Flow      Flow      Volume
  Outfall Node           Pcnt       LPS       LPS    10^6 ltr
  -----------------------------------------------------------
  CC-1                  48.23    683.00    683.00       5.847
  CC-2                  44.46    683.00    683.00       5.306
  JK-1                  12.51   1000.00   1000.00       2.087
  JK-2                  10.84   1000.00   1000.00       1.780
  WSC                   99.94    254.72    558.85       5.169
  -----------------------------------------------------------
  System                43.20   3620.72   3924.58      20.190
  
  
  ********************
  Link Flow Summary
  ********************
  
  -----------------------------------------------------------------------------
                                 Maximum  Time of Max   Maximum    Max/    Max/
                                  |Flow|   Occurrence   |Veloc|    Full    Full
  Link                 Type          LPS  days hr:min     m/sec    Flow   Depth
  -----------------------------------------------------------------------------
  1                    CONDUIT    558.85     0  02:13      2.83    0.19    0.30
  WS02003060WS02003069 CONDUIT    557.27     0  02:10      1.64    0.22    0.34
  WS02003066WSF200     CONDUIT    540.49     0  02:09      2.86    0.09    0.22
  WS02003067WS02003066 CONDUIT    540.42     0  02:09      1.21    0.17    0.42
  WS02003069WS02003072 CONDUIT    557.32     0  02:11      1.37    0.27    0.39
  WS02003072WS02003073 CONDUIT    557.17     0  02:12      1.44    1.20    0.37
  WS02004401WS02004402 CONDUIT    542.55     0  02:10      1.23    0.65    0.89
  WS02004402WS02004403 CONDUIT    542.11     0  02:10      1.27    0.78    0.91
  WS02004403WS02004404 CONDUIT    562.97     0  02:04      1.25    0.41    0.96
  WS02004404WS02004405 CONDUIT    607.83     0  02:06      1.48    5.96    0.98
  WS02004405WS02004406 CONDUIT    548.60     0  02:07      1.47    1.08    0.96
  WS02004406WS02004407 CONDUIT    542.26     0  02:09      1.04    0.24    0.63
  WS02004407WS02004409 CONDUIT    541.58     0  02:10      1.55    0.19    0.48
  WS02004409WS02004410 CONDUIT    540.92     0  02:10      1.02    0.70    0.68
  WS02004410WS02004411 CONDUIT    540.71     0  02:08      0.98    0.74    0.69
  WS02004411WS02004412 CONDUIT    540.69     0  02:08      0.96    0.77    0.70
  WS02004412WS02004413 CONDUIT    540.50     0  02:11      1.00    0.36    0.78
  WS02004413WS02003067 CONDUIT    540.28     0  02:09      1.11    0.23    0.59
  WS02006109WS02006110 CONDUIT    560.88     0  03:00      1.12    1.08    1.00
  WS02006110WS02006113 CONDUIT    567.27     0  02:16      1.37    0.52    0.79
  WS02006111WS02006112 CONDUIT    542.64     0  01:59      1.96    0.26    0.67
  WS02006112WS02006115 CONDUIT    553.58     0  02:18      0.86    0.33    0.88
  WS02006113WS02006111 CONDUIT    562.24     0  02:17      2.47    0.67    0.46
  WS02006115WS02006116 CONDUIT    539.07     0  02:05      1.27    0.69    0.79
  WS02006116WS02004401 CONDUIT    540.18     0  02:10      1.21    0.74    0.87
  WS02006228WS02006109 CONDUIT    559.72     0  03:01      1.11    2.45    1.00
  WS02006229WS02006228 CONDUIT    559.16     0  03:01      1.14    1.85    1.00
  WS02006230WS02006229 CONDUIT    559.40     0  03:01      1.45   12.45    1.00
  WS02006231WS02006230 CONDUIT    580.10     0  01:40      1.58    8.80    1.00
  WS02006232WS02006231 CONDUIT    573.87     0  02:15      1.50    1.20    1.00
  WS02006234WS02006232 CONDUIT    572.97     0  02:15      1.49    1.16    1.00
  WS02006235WS02006234 CONDUIT    568.49     0  02:15      1.48    6.00    1.00
  WS02006238WS02006235 CONDUIT    424.77     0  02:10      1.46    0.95    1.00
  WS02006239WS02006238 CONDUIT    423.79     0  02:10      1.10    1.36    1.00
  WS02006240WS02006239 CONDUIT    422.76     0  02:10      1.24    1.33    1.00
  WS02006242WS02006240 CONDUIT    420.53     0  02:10      1.13    1.67    1.00
  WS02006243WS02006242 CONDUIT    420.72     0  02:10      1.40    0.90    1.00
  WS02006245WS02006243 CONDUIT    419.85     0  02:10      1.45    1.24    1.00
  WS02006247WS02006245 CONDUIT    419.07     0  02:10      1.43    3.32    1.00
  WS02006248WS02006247 CONDUIT    419.34     0  02:10      1.44    0.91    1.00
  WS02006249WS02006248 CONDUIT    420.14     0  02:30      1.36    2.30    1.00
  WS02006251WS02006249 CONDUIT    488.17     0  01:30      2.04    1.41    1.00
  WS02006252WS02006251 CONDUIT    406.63     0  03:00     21.94    1.49    1.00
  WS02006256WS02006235 CONDUIT    288.91     0  00:00      4.23    3.06    1.00
  WSF200WS02003060     CONDUIT    540.81     0  02:10      2.06    0.12    0.28
  YS02001580YS02001583 CONDUIT    125.60     0  01:31      0.79    0.49    1.00
  YS02001583YS02001586 CONDUIT    180.24     0  01:31      0.79    0.27    1.00
  YS02001586YS02001590 CONDUIT    322.78     0  01:38      1.26    0.57    1.00
  YS02001590YS02001593 CONDUIT    322.50     0  01:38      1.14    2.02    1.00
  YS02001593YS02001596 CONDUIT    318.14     0  01:55      1.70    0.50    1.00
  YS02001596YS02001600 CONDUIT    318.02     0  01:45      1.24    0.62    1.00
  YS02001600YS02001601 CONDUIT    318.45     0  01:38      1.13    0.55    1.00
  YS02001601YS02001602 CONDUIT    559.59     0  01:31      1.98    2.02    1.00
  YS02001602YS02001605 CONDUIT    559.45     0  01:31      1.98   11.84    1.00
  YS02001605YS02001607 CONDUIT    559.61     0  01:31      1.98    3.07    1.00
  YS02001607YS02001610 CONDUIT    545.49     0  01:31      0.70    0.52    1.00
  YS02001610YS02001613 CONDUIT    617.62     0  01:45      0.79    0.71    1.00
  YS02001613YS02001616 CONDUIT    617.77     0  01:45      0.79    0.53    1.00
  YS02001616YS02001619 CONDUIT    617.62     0  01:45      0.79    1.07    1.00
  YS02001619YS02001622 CONDUIT   1058.30     0  01:38      1.35    1.56    1.00
  YS02001622YS02001625 CONDUIT   1053.67     0  01:45      1.34    0.56    1.00
  YS02001625YS02001629 CONDUIT    939.57     0  01:31      1.20    0.45    1.00
  YS02001629YS02163301 CONDUIT    924.11     0  01:33      1.18    1.14    1.00
  YS02001633YS02163601 CONDUIT   1436.58     0  01:33      1.83    1.51    1.00
  YS02001641YS02001644 CONDUIT   1443.38     0  01:33      1.84    4.67    1.00
  YS02001644YS02001647 CONDUIT   1906.11     0  01:33      2.46    1.12    1.00
  YS02001647YS02001649 CONDUIT   1909.65     0  01:33      2.43    1.01    1.00
  YS02001649YS02001757 CONDUIT   2198.03     0  01:33      2.80    1.33    1.00
  YS02001652YS02001649 CONDUIT   1208.69     0  01:38      1.54    0.60    1.00
  YS02001655YS02001652 CONDUIT   1208.29     0  01:38      1.54    0.59    1.00
  YS02001658YS02001655 CONDUIT   1207.70     0  01:38      2.00    0.51    1.00
  YS02001661YS02001658 CONDUIT   1207.75     0  01:38      2.41    0.47    1.00
  YS02001664YS02001661 CONDUIT   1207.31     0  01:38      2.50    0.38    1.00
  YS02001745YS02001748 CONDUIT    790.11     0  01:38      2.33    0.30    1.00
  YS02001748YS02001751 CONDUIT    790.21     0  01:38      1.82    0.40    1.00
  YS02001751YS02001754 CONDUIT    790.67     0  01:38      1.56    0.38    1.00
  YS02001754YS02001757 CONDUIT    790.79     0  01:38      1.01    0.32    1.00
  YS02001757CaochengTiaoxuchi CONDUIT   3623.81     0  01:35      4.89    1.57    1.00
  YS02001759YS02001757 CONDUIT   1550.69     0  01:35      1.97    1.10    1.00
  YS02001762YS02001759 CONDUIT    864.79     0  01:35      1.10    1.00    1.00
  YS02001765YS02001762 CONDUIT    865.82     0  01:35      1.10    0.81    1.00
  YS02001767YS02001765 CONDUIT    867.68     0  01:35      1.10    1.09    1.00
  YS02001770YS02001767 CONDUIT    868.00     0  01:35      1.11    3.44    1.00
  YS02001774YS02001770 CONDUIT    851.84     0  01:41      1.08    0.54    1.00
  YS02001779YS02001774 CONDUIT    851.55     0  01:41      1.08    0.43    1.00
  YS02001783YS02001784 CONDUIT   1185.43     0  01:38      2.36    1.63    1.00
  YS02001784YS02001785 CONDUIT   1184.93     0  01:38      2.36    2.76    1.00
  YS02001786YS02001788 CONDUIT   1181.09     0  01:38      2.51    2.28    0.89
  YS02001788YS02001790 CONDUIT   1182.25     0  01:37      2.72    0.87    0.85
  YS02001790YS02001791 CONDUIT   1299.33     0  01:39      3.46    1.41    0.71
  YS02001791YS02001793 CONDUIT   1255.50     0  01:40      6.71    0.54    0.45
  YS02001793JiankangQianchi CONDUIT   1280.39     0  01:55      2.53    0.10    0.65
  YS02001882YS02001884 CONDUIT     65.18     0  01:32      0.19    0.07    1.00
  YS02001884YS02001887 CONDUIT    115.40     0  01:31      0.15    0.15    1.00
  YS02001887YS02001890 CONDUIT   1172.61     0  01:38      1.49    2.01    1.00
  YS02001890YS02001895 CONDUIT    532.46     0  01:33      0.68    0.25    1.00
  YS02001895YS02001898 CONDUIT    530.29     0  01:33      0.68    0.92    1.00
  YS02001898YS02001901 CONDUIT    530.84     0  01:38      0.68    0.34    1.00
  YS02001901YS02001904 CONDUIT    527.40     0  01:33      0.67    0.82    1.00
  YS02001904YS02001907 CONDUIT    531.51     0  01:32      0.68    0.19    1.00
  YS02001907YS02006553 CONDUIT    791.85     0  02:10      0.88    0.93    1.00
  YS02001910YS02001907 CONDUIT   1983.12     0  01:40      2.52    1.12    1.00
  YS02001915YS02001910 CONDUIT   1982.53     0  01:40      2.52    0.98    1.00
  YS02001918YS02001915 CONDUIT    652.37     0  01:41      0.83    0.36    1.00
  YS02001920YS02001918 CONDUIT    652.32     0  01:41      0.83    0.63    1.00
  YS02001923YS02001920 CONDUIT    649.21     0  01:41      0.83    0.29    1.00
  YS02001926YS02001923 CONDUIT    651.91     0  01:33      1.09    0.93    1.00
  YS02001929YS02001926 CONDUIT    648.51     0  01:41      1.18    0.31    1.00
  YS02006553YS02006556 CONDUIT    791.26     0  02:10      1.01    0.68    1.00
  YS02006556YS02006558 CONDUIT    791.59     0  02:10      1.01    0.63    1.00
  YS02006558YS02006561 CONDUIT   1185.05     0  01:38      4.19    2.62    1.00
  YS02006561YS02001783 CONDUIT   1186.73     0  01:38      2.36    0.61    1.00
  YS02163301YS02001633 CONDUIT    922.93     0  01:33      1.18    0.87    1.00
  YS02163601YS02164001 CONDUIT   1435.38     0  01:33      1.83    1.27    1.00
  YS02164001YS02001641 CONDUIT   1439.81     0  01:33      1.83    1.97    1.00
  CC-R1                PUMP       683.00     0  00:00              1.00
  CC-R2                PUMP       683.00     0  00:00              1.00
  CC-S1                PUMP       200.00     0  00:00              1.00
  CC-S2                PUMP       200.00     0  00:00              1.00
  JK-R1                PUMP      1000.00     0  00:00              1.00
  JK-R2                PUMP      1000.00     0  00:00              1.00
  JK-S                 PUMP       300.00     0  00:00              1.00
  
  
  ***************************
  Flow Classification Summary
  ***************************
  
  -------------------------------------------------------------------------------------
                      Adjusted    ---------- Fraction of Time in Flow Class ---------- 
                       /Actual         Up    Down  Sub   Sup   Up    Down  Norm  Inlet 
  Conduit               Length    Dry  Dry   Dry   Crit  Crit  Crit  Crit  Ltd   Ctrl  
  -------------------------------------------------------------------------------------
  1                       1.00   0.00  0.00  0.00  0.00  1.00  0.00  0.00  0.31  0.00
  WS02003060WS02003069    1.00   0.00  0.00  0.00  0.98  0.02  0.00  0.00  0.70  0.00
  WS02003066WSF200        1.00   0.05  0.00  0.00  0.00  0.94  0.00  0.00  0.79  0.00
  WS02003067WS02003066    1.00   0.05  0.00  0.00  0.95  0.00  0.00  0.00  0.00  0.00
  WS02003069WS02003072    1.00   0.00  0.00  0.00  0.99  0.01  0.00  0.00  0.71  0.00
  WS02003072WS02003073    1.00   0.00  0.00  0.00  0.00  0.00  0.00  1.00  0.00  0.00
  WS02004401WS02004402    1.00   0.02  0.00  0.00  0.98  0.00  0.00  0.00  0.00  0.00
  WS02004402WS02004403    1.00   0.02  0.00  0.00  0.98  0.00  0.00  0.00  0.00  0.00
  WS02004403WS02004404    1.00   0.00  0.03  0.00  0.97  0.00  0.00  0.00  0.00  0.00
  WS02004404WS02004405    1.00   0.00  0.00  0.00  1.00  0.00  0.00  0.00  0.01  0.00
  WS02004405WS02004406    1.00   0.00  0.00  0.00  1.00  0.00  0.00  0.00  0.00  0.00
  WS02004406WS02004407    1.00   0.00  0.03  0.00  0.97  0.00  0.00  0.00  0.00  0.00
  WS02004407WS02004409    1.00   0.03  0.00  0.00  0.96  0.01  0.00  0.00  0.96  0.00
  WS02004409WS02004410    1.00   0.03  0.00  0.00  0.96  0.00  0.00  0.00  0.00  0.00
  WS02004410WS02004411    1.00   0.03  0.00  0.00  0.96  0.00  0.00  0.00  0.00  0.00
  WS02004411WS02004412    1.00   0.04  0.00  0.00  0.96  0.00  0.00  0.00  0.00  0.00
  WS02004412WS02004413    1.00   0.04  0.00  0.00  0.96  0.00  0.00  0.00  0.00  0.00
  WS02004413WS02003067    1.00   0.04  0.01  0.00  0.00  0.00  0.95  0.00  0.00  0.00
  WS02006109WS02006110    1.00   0.00  0.01  0.00  0.98  0.00  0.01  0.00  0.00  0.00
  WS02006110WS02006113    1.00   0.01  0.01  0.00  0.98  0.00  0.00  0.00  0.00  0.00
  WS02006111WS02006112    1.00   0.02  0.00  0.00  0.98  0.00  0.00  0.00  0.98  0.00
  WS02006112WS02006115    1.00   0.02  0.00  0.00  0.97  0.00  0.00  0.00  0.00  0.00
  WS02006113WS02006111    1.00   0.02  0.00  0.00  0.00  0.98  0.00  0.00  0.11  0.00
  WS02006115WS02006116    1.00   0.02  0.00  0.00  0.97  0.00  0.00  0.01  0.00  0.00
  WS02006116WS02004401    1.00   0.02  0.00  0.00  0.98  0.00  0.00  0.00  0.00  0.00
  WS02006228WS02006109    1.00   0.00  0.00  0.00  1.00  0.00  0.00  0.00  0.00  0.00
  WS02006229WS02006228    1.00   0.00  0.00  0.00  0.99  0.00  0.00  0.01  0.00  0.00
  WS02006230WS02006229    1.00   0.00  0.00  0.00  0.99  0.00  0.00  0.01  0.03  0.00
  WS02006231WS02006230    1.00   0.00  0.00  0.00  0.29  0.00  0.71  0.00  0.00  0.00
  WS02006232WS02006231    1.00   0.00  0.00  0.00  0.99  0.00  0.01  0.00  0.00  0.00
  WS02006234WS02006232    1.00   0.00  0.00  0.00  1.00  0.00  0.00  0.00  0.03  0.00
  WS02006235WS02006234    1.00   0.00  0.00  0.00  0.92  0.00  0.08  0.00  0.00  0.00
  WS02006238WS02006235    1.00   0.00  0.00  0.00  1.00  0.00  0.00  0.00  0.00  0.00
  WS02006239WS02006238    1.00   0.00  0.00  0.00  1.00  0.00  0.00  0.00  0.15  0.00
  WS02006240WS02006239    1.00   0.00  0.00  0.00  0.64  0.00  0.00  0.36  0.03  0.00
  WS02006242WS02006240    1.00   0.00  0.00  0.00  0.99  0.00  0.01  0.00  0.00  0.00
  WS02006243WS02006242    1.00   0.00  0.00  0.00  0.99  0.00  0.00  0.01  0.63  0.00
  WS02006245WS02006243    1.00   0.00  0.00  0.00  0.79  0.00  0.00  0.21  0.00  0.00
  WS02006247WS02006245    1.00   0.00  0.00  0.00  0.96  0.00  0.00  0.04  0.00  0.00
  WS02006248WS02006247    1.00   0.00  0.00  0.00  0.98  0.00  0.00  0.02  0.53  0.00
  WS02006249WS02006248    1.00   0.00  0.00  0.00  0.43  0.00  0.57  0.00  0.00  0.00
  WS02006251WS02006249    1.00   0.00  0.00  0.00  0.99  0.01  0.00  0.00  0.60  0.00
  WS02006252WS02006251    1.00   0.15  0.33  0.00  0.16  0.00  0.36  0.00  0.00  0.00
  WS02006256WS02006235    1.00   0.00  0.00  0.00  0.98  0.02  0.00  0.00  0.00  0.00
  WSF200WS02003060        1.00   0.00  0.06  0.00  0.43  0.52  0.00  0.00  0.65  0.00
  YS02001580YS02001583    1.00   0.19  0.56  0.00  0.26  0.00  0.00  0.00  0.65  0.00
  YS02001583YS02001586    1.00   0.41  0.28  0.00  0.31  0.00  0.00  0.00  0.65  0.00
  YS02001586YS02001590    1.00   0.13  0.00  0.00  0.45  0.04  0.00  0.38  0.31  0.00
  YS02001590YS02001593    1.00   0.13  0.01  0.00  0.18  0.00  0.68  0.00  0.00  0.00
  YS02001593YS02001596    1.00   0.13  0.00  0.00  0.20  0.01  0.00  0.66  0.02  0.00
  YS02001596YS02001600    1.00   0.13  0.00  0.00  0.24  0.01  0.00  0.62  0.03  0.00
  YS02001600YS02001601    1.00   0.13  0.01  0.00  0.87  0.00  0.00  0.00  0.57  0.00
  YS02001601YS02001602    1.00   0.13  0.01  0.00  0.87  0.00  0.00  0.00  0.00  0.00
  YS02001602YS02001605    1.00   0.13  0.00  0.00  0.87  0.00  0.00  0.00  0.00  0.00
  YS02001605YS02001607    1.00   0.13  0.00  0.00  0.87  0.00  0.00  0.00  0.00  0.00
  YS02001607YS02001610    1.00   0.13  0.00  0.00  0.86  0.00  0.00  0.00  0.01  0.00
  YS02001610YS02001613    1.00   0.13  0.00  0.00  0.87  0.00  0.00  0.00  0.00  0.00
  YS02001613YS02001616    1.00   0.13  0.00  0.00  0.87  0.00  0.00  0.00  0.00  0.00
  YS02001616YS02001619    1.00   0.13  0.00  0.00  0.87  0.00  0.00  0.00  0.00  0.00
  YS02001619YS02001622    1.00   0.13  0.00  0.00  0.87  0.00  0.00  0.00  0.27  0.00
  YS02001622YS02001625    1.00   0.13  0.00  0.00  0.87  0.00  0.00  0.00  0.02  0.00
  YS02001625YS02001629    1.00   0.13  0.03  0.00  0.22  0.00  0.62  0.00  0.00  0.00
  YS02001629YS02163301    1.00   0.14  0.01  0.00  0.85  0.00  0.00  0.00  0.00  0.00
  YS02001633YS02163601    1.00   0.00  0.01  0.00  0.99  0.00  0.00  0.00  0.14  0.00
  YS02001641YS02001644    1.00   0.00  0.01  0.00  0.99  0.00  0.00  0.00  0.00  0.00
  YS02001644YS02001647    1.00   0.00  0.15  0.00  0.85  0.00  0.00  0.00  0.00  0.00
  YS02001647YS02001649    1.00   0.00  0.15  0.00  0.60  0.24  0.00  0.00  0.56  0.00
  YS02001649YS02001757    1.00   0.00  0.00  0.00  0.74  0.26  0.00  0.00  0.41  0.00
  YS02001652YS02001649    1.00   0.00  0.00  0.00  0.98  0.02  0.00  0.00  0.70  0.00
  YS02001655YS02001652    1.00   0.00  0.00  0.00  0.25  0.00  0.00  0.75  0.03  0.00
  YS02001658YS02001655    1.00   0.00  0.14  0.00  0.73  0.13  0.00  0.00  0.62  0.00
  YS02001661YS02001658    1.00   0.14  0.00  0.00  0.57  0.29  0.00  0.00  0.66  0.00
  YS02001664YS02001661    1.00   0.13  0.00  0.00  0.79  0.08  0.00  0.00  0.83  0.00
  YS02001745YS02001748    1.00   0.00  0.00  0.00  0.18  0.01  0.00  0.81  0.05  0.00
  YS02001748YS02001751    1.00   0.00  0.00  0.00  0.89  0.11  0.00  0.00  0.74  0.00
  YS02001751YS02001754    1.00   0.00  0.00  0.00  0.24  0.00  0.00  0.76  0.03  0.00
  YS02001754YS02001757    1.00   0.00  0.00  0.00  1.00  0.00  0.00  0.00  0.75  0.00
  YS02001757CaochengTiaoxuchi    1.00   0.00  0.00  0.00  0.97  0.03  0.00  0.00  0.73  0.00
  YS02001759YS02001757    1.00   0.00  0.00  0.00  0.98  0.02  0.00  0.00  0.60  0.00
  YS02001762YS02001759    1.00   0.00  0.00  0.00  1.00  0.00  0.00  0.00  0.03  0.00
  YS02001765YS02001762    1.00   0.00  0.00  0.00  1.00  0.00  0.00  0.00  0.69  0.00
  YS02001767YS02001765    1.00   0.00  0.00  0.00  1.00  0.00  0.00  0.00  0.00  0.00
  YS02001770YS02001767    1.00   0.00  0.00  0.00  1.00  0.00  0.00  0.00  0.00  0.00
  YS02001774YS02001770    1.00   0.00  0.13  0.00  0.71  0.00  0.16  0.00  0.02  0.00
  YS02001779YS02001774    1.00   0.00  0.00  0.00  1.00  0.00  0.00  0.00  0.72  0.00
  YS02001783YS02001784    1.00   0.00  0.16  0.00  0.84  0.00  0.00  0.00  0.54  0.00
  YS02001784YS02001785    1.00   0.00  0.00  0.00  1.00  0.00  0.00  0.00  0.15  0.00
  YS02001786YS02001788    1.00   0.00  0.00  0.00  0.80  0.20  0.00  0.00  0.00  0.00
  YS02001788YS02001790    1.00   0.00  0.00  0.00  0.21  0.79  0.00  0.00  0.77  0.00
  YS02001790YS02001791    1.00   0.00  0.00  0.00  0.01  0.99  0.00  0.00  0.16  0.00
  YS02001791YS02001793    1.00   0.00  0.00  0.00  0.00  1.00  0.00  0.00  0.01  0.00
  YS02001793JiankangQianchi    1.00   0.00  0.00  0.00  0.95  0.05  0.00  0.00  0.95  0.00
  YS02001882YS02001884    1.00   0.14  0.00  0.00  0.85  0.00  0.00  0.00  0.00  0.00
  YS02001884YS02001887    1.00   0.06  0.05  0.00  0.89  0.00  0.00  0.00  0.00  0.00
  YS02001887YS02001890    1.00   0.00  0.00  0.00  0.97  0.00  0.03  0.00  0.00  0.00
  YS02001890YS02001895    1.00   0.00  0.15  0.00  0.85  0.00  0.00  0.00  0.00  0.00
  YS02001895YS02001898    1.00   0.15  0.00  0.00  0.84  0.00  0.01  0.00  0.00  0.00
  YS02001898YS02001901    1.00   0.15  0.00  0.00  0.85  0.00  0.00  0.00  0.00  0.00
  YS02001901YS02001904    1.00   0.15  0.00  0.00  0.85  0.00  0.00  0.00  0.00  0.00
  YS02001904YS02001907    1.00   0.00  0.15  0.00  0.85  0.00  0.00  0.00  0.00  0.00
  YS02001907YS02006553    1.00   0.00  0.02  0.00  0.98  0.00  0.00  0.00  0.00  0.00
  YS02001910YS02001907    1.00   0.00  0.00  0.00  0.97  0.00  0.00  0.03  0.11  0.00
  YS02001915YS02001910    1.00   0.00  0.00  0.00  0.97  0.03  0.00  0.00  0.12  0.00
  YS02001918YS02001915    1.00   0.00  0.01  0.00  0.98  0.02  0.00  0.00  0.69  0.00
  YS02001920YS02001918    1.00   0.00  0.01  0.00  0.99  0.00  0.00  0.00  0.00  0.00
  YS02001923YS02001920    1.00   0.00  0.00  0.00  1.00  0.00  0.00  0.00  0.88  0.00
  YS02001926YS02001923    1.00   0.00  0.07  0.00  0.10  0.00  0.83  0.00  0.00  0.00
  YS02001929YS02001926    1.00   0.00  0.13  0.00  0.87  0.00  0.00  0.00  0.79  0.00
  YS02006553YS02006556    1.00   0.01  0.00  0.00  0.99  0.00  0.00  0.00  0.03  0.00
  YS02006556YS02006558    1.00   0.00  0.00  0.00  1.00  0.00  0.00  0.00  0.00  0.00
  YS02006558YS02006561    1.00   0.16  0.00  0.00  0.09  0.75  0.00  0.00  0.16  0.00
  YS02006561YS02001783    1.00   0.16  0.00  0.00  0.13  0.71  0.00  0.00  0.64  0.00
  YS02163301YS02001633    1.00   0.00  0.14  0.00  0.86  0.00  0.00  0.00  0.00  0.00
  YS02163601YS02164001    1.00   0.00  0.08  0.00  0.92  0.00  0.00  0.00  0.00  0.00
  YS02164001YS02001641    1.00   0.01  0.07  0.00  0.92  0.00  0.00  0.00  0.05  0.00
  
  
  *************************
  Conduit Surcharge Summary
  *************************
  
  ----------------------------------------------------------------------------
                                                           Hours        Hours 
                         --------- Hours Full --------   Above Full   Capacity
  Conduit                Both Ends  Upstream  Dnstream   Normal Flow   Limited
  ----------------------------------------------------------------------------
  WS02003072WS02003073        0.01      0.01      0.01      1.49         0.01
  WS02004403WS02004404        0.01      0.01      0.03      0.01         0.01
  WS02004404WS02004405        0.01      0.03      0.01      2.70         0.01
  WS02004405WS02004406        0.01      0.01      0.01      1.00         0.01
  WS02006109WS02006110        1.10      1.10      2.19      1.19         0.01
  WS02006110WS02006113        0.01      0.01      2.18      0.01         0.01
  WS02006111WS02006112        0.01      0.01      2.31      0.01         0.01
  WS02006112WS02006115        0.01      0.01      1.19      0.01         0.01
  WS02006228WS02006109        2.16      2.19      2.16      2.47         2.16
  WS02006229WS02006228        2.16      2.17      2.16      2.38         2.15
  WS02006230WS02006229        2.24      2.33      2.24      3.39         2.24
  WS02006231WS02006230        1.12      1.12      1.24      2.88         0.01
  WS02006232WS02006231        1.20      1.20      2.20      1.25         0.01
  WS02006234WS02006232        2.14      2.14      2.20      1.24         1.23
  WS02006235WS02006234        1.48      1.48      2.15      2.76         0.01
  WS02006238WS02006235        2.17      2.17      2.20      0.01         0.01
  WS02006239WS02006238        2.18      2.19      2.18      2.27         2.00
  WS02006240WS02006239        2.15      2.16      2.17      2.27         1.91
  WS02006242WS02006240        2.15      2.15      2.24      2.39         0.01
  WS02006243WS02006242        2.14      2.14      2.20      0.01         0.03
  WS02006245WS02006243        2.14      2.14      2.14      1.17         1.14
  WS02006247WS02006245        2.14      2.14      2.14      2.49         2.13
  WS02006248WS02006247        2.13      2.13      2.14      0.01         0.03
  WS02006249WS02006248        2.13      2.13      2.13      2.47         0.01
  WS02006251WS02006249        2.13      2.13      2.13      2.36         2.08
  WS02006252WS02006251        2.44      2.44      2.47      2.44         0.01
  WS02006256WS02006235        2.80      2.84      6.79      1.61         0.01
  YS02001580YS02001583        1.01      1.01      1.08      0.01         0.01
  YS02001583YS02001586        1.01      1.01      1.23      0.01         0.01
  YS02001586YS02001590        1.24      1.24      1.33      0.01         0.01
  YS02001590YS02001593        1.33      1.33      1.35      1.40         0.01
  YS02001593YS02001596        1.34      1.34      1.47      0.01         0.01
  YS02001596YS02001600        1.53      1.53      1.62      0.01         0.01
  YS02001600YS02001601        1.66      1.66      1.83      0.01         0.01
  YS02001601YS02001602        1.76      1.76      1.86      1.62         0.01
  YS02001602YS02001605        1.73      1.73      1.76      2.48         0.01
  YS02001605YS02001607        1.71      1.73      1.71      1.79         1.71
  YS02001607YS02001610        1.35      1.35      1.38      0.01         0.01
  YS02001610YS02001613        1.35      1.35      1.38      0.01         0.01
  YS02001613YS02001616        1.30      1.30      1.35      0.01         0.01
  YS02001616YS02001619        1.28      1.28      1.30      0.14         0.14
  YS02001619YS02001622        1.28      1.28      1.28      1.25         1.19
  YS02001622YS02001625        1.28      1.28      1.50      0.01         0.01
  YS02001625YS02001629        1.22      1.22      1.50      0.01         0.01
  YS02001629YS02163301        1.51      1.51      1.52      0.03         0.06
  YS02001633YS02163601        1.54      1.54      1.57      0.22         0.25
  YS02001641YS02001644        1.48      1.51      1.48      1.87         1.46
  YS02001644YS02001647        1.24      1.24      1.48      0.05         0.01
  YS02001647YS02001649        1.24      1.24      1.42      0.01         0.01
  YS02001649YS02001757        1.42      1.42      1.49      0.06         0.03
  YS02001652YS02001649        1.20      1.20      1.42      0.01         0.01
  YS02001655YS02001652        0.91      0.91      1.16      0.01         0.01
  YS02001658YS02001655        0.46      0.46      0.91      0.01         0.01
  YS02001661YS02001658        0.17      0.17      0.46      0.01         0.01
  YS02001664YS02001661        0.01      0.01      0.22      0.01         0.01
  YS02001745YS02001748        0.01      0.01      0.34      0.01         0.01
  YS02001748YS02001751        0.40      0.40      0.68      0.01         0.01
  YS02001751YS02001754        0.68      0.68      1.06      0.01         0.01
  YS02001754YS02001757        1.13      1.13      1.49      0.01         0.01
  YS02001757CaochengTiaoxuchi        1.40      1.49      1.88      0.54         0.42
  YS02001759YS02001757        1.39      1.39      1.49      0.13         0.12
  YS02001762YS02001759        1.36      1.36      1.39      0.01         0.02
  YS02001765YS02001762        1.31      1.31      1.36      0.01         0.01
  YS02001767YS02001765        1.26      1.26      1.31      0.01         0.02
  YS02001770YS02001767        1.25      1.25      1.26      0.84         0.77
  YS02001774YS02001770        1.22      1.22      1.34      0.01         0.01
  YS02001779YS02001774        1.04      1.04      1.34      0.01         0.01
  YS02001783YS02001784        0.81      0.84      0.81      1.02         0.81
  YS02001784YS02001785        0.68      0.81      0.68      1.38         0.68
  YS02001786YS02001788        0.01      0.68      0.01      1.18         0.01
  YS02001790YS02001791        0.01      0.01      0.01      0.79         0.01
  YS02001793JiankangQianchi        0.01      0.01      6.47      0.01         0.01
  YS02001882YS02001884        0.76      0.76      0.78      0.01         0.01
  YS02001884YS02001887        0.81      0.81      0.83      0.01         0.01
  YS02001887YS02001890        0.84      0.84      0.86      0.24         0.01
  YS02001890YS02001895        0.75      0.75      0.88      0.01         0.01
  YS02001895YS02001898        0.74      0.74      0.75      0.01         0.01
  YS02001898YS02001901        0.75      0.75      0.81      0.01         0.01
  YS02001901YS02001904        0.79      0.79      0.81      0.01         0.01
  YS02001904YS02001907        0.79      0.79      1.14      0.01         0.01
  YS02001907YS02006553        1.40      1.40      1.50      0.01         0.01
  YS02001910YS02001907        0.88      0.88      1.09      0.11         0.12
  YS02001915YS02001910        0.76      0.76      0.88      0.01         0.01
  YS02001918YS02001915        0.66      0.66      0.76      0.01         0.01
  YS02001920YS02001918        0.66      0.66      0.67      0.01         0.01
  YS02001923YS02001920        0.60      0.60      0.67      0.01         0.01
  YS02001926YS02001923        0.26      0.26      0.29      0.01         0.01
  YS02001929YS02001926        0.14      0.14      0.29      0.01         0.01
  YS02006553YS02006556        0.98      0.98      1.13      0.01         0.01
  YS02006556YS02006558        1.04      1.04      1.18      0.01         0.01
  YS02006558YS02006561        0.70      0.97      0.70      1.31         0.70
  YS02006561YS02001783        0.62      0.62      0.84      0.01         0.01
  YS02163301YS02001633        1.52      1.52      1.55      0.01         0.01
  YS02163601YS02164001        1.50      1.50      1.57      0.05         0.01
  YS02164001YS02001641        1.50      1.50      1.51      0.94         0.96
  
  
  ***************
  Pumping Summary
  ***************
  
  ---------------------------------------------------------------------------------------------------------
                                                  Min       Avg       Max     Total     Power    % Time Off
                        Percent   Number of      Flow      Flow      Flow    Volume     Usage    Pump Curve
  Pump                 Utilized   Start-Ups       LPS       LPS       LPS  10^6 ltr     Kw-hr    Low   High
  ---------------------------------------------------------------------------------------------------------
  CC-R1                   29.80          24      0.00    683.00    683.00     5.862    110.13    0.0   23.1
  CC-R2                   27.03          23      0.00    683.00    683.00     5.316    100.21    0.0   22.9
  CC-S1                   31.94          25      0.00    200.00    200.00     1.840     10.00    0.0    0.0
  CC-S2                   31.17          23      0.00    200.00    200.00     1.795      9.68    0.0    0.0
  JK-R1                    7.25          20      0.00   1000.00   1000.00     2.087     21.94    0.0    0.0
  JK-R2                    6.19          24      0.00   1000.00   1000.00     1.784     14.99    0.0    0.0
  JK-S                    19.61          32      0.00    300.00    300.00     1.694     28.73    0.0    0.0
  

  Analysis begun on:  Mon Dec 30 10:19:29 2024
  Analysis ended on:  Mon Dec 30 10:19:31 2024
  Total elapsed time: 00:00:02