
  EPA STORM WATER MANAGEMENT MODEL - VERSION 5.2 (Build 5.2.4)
  PYSWMM TOOLKIT API - VERSION v1.0 (2023-11-27)
  ------------------------------------------------------------

  WARNING 04: minimum elevation drop used for Conduit WS02004404WS02004405
  WARNING 03: negative offset ignored for Link YS02001904YS02001907
  
  ****************
  Analysis Options
  ****************
  Flow Units ............... LPS
  Process Models:
    Rainfall/Runoff ........ YES
    RDII ................... NO
    Snowmelt ............... NO
    Groundwater ............ NO
    Flow Routing ........... YES
    Ponding Allowed ........ NO
    Water Quality .......... NO
  Infiltration Method ...... HORTON
  Flow Routing Method ...... DYNWAVE
  Surcharge Method ......... EXTRAN
  Starting Date ............ 08/28/2015 08:00:00
  Ending Date .............. 08/28/2015 16:00:00
  Antecedent Dry Days ...... 8.0
  Report Time Step ......... 00:01:00
  Wet Time Step ............ 00:01:00
  Dry Time Step ............ 00:01:00
  Routing Time Step ........ 30.00 sec
  Variable Time Step ....... YES
  Maximum Trials ........... 8
  Number of Threads ........ 4
  Head Tolerance ........... 0.001500 m
  
  
  **************************        Volume         Depth
  Runoff Quantity Continuity     hectare-m            mm
  **************************     ---------       -------
  Total Precipitation ......         3.382       101.952
  Evaporation Loss .........         0.000         0.000
  Infiltration Loss ........         0.103         3.096
  Surface Runoff ...........         3.247        97.887
  Final Storage ............         0.033         0.996
  Continuity Error (%) .....        -0.027
  
  
  **************************        Volume        Volume
  Flow Routing Continuity        hectare-m      10^6 ltr
  **************************     ---------     ---------
  Dry Weather Inflow .......         0.025         0.251
  Wet Weather Inflow .......         3.248        32.481
  Groundwater Inflow .......         0.000         0.000
  RDII Inflow ..............         0.000         0.000
  External Inflow ..........         0.083         0.834
  External Outflow .........         2.009        20.091
  Flooding Loss ............         1.419        14.191
  Evaporation Loss .........         0.000         0.000
  Exfiltration Loss ........         0.000         0.000
  Initial Stored Volume ....         0.243         2.431
  Final Stored Volume ......         0.182         1.820
  Continuity Error (%) .....        -0.294
  
  
  *************************
  Highest Continuity Errors
  *************************
  Node YS02001583 (-9.67%)
  Node YS02001884 (5.12%)
  Node WS02006256 (-2.45%)
  
  
  ***************************
  Time-Step Critical Elements
  ***************************
  Link WS02006252WS02006251 (25.99%)
  Link WS02006238WS02006235 (20.68%)
  Link WS02004404WS02004405 (15.26%)
  Link YS02001791YS02001793 (11.87%)
  Link WS02006235WS02006234 (5.12%)
  
  
  ********************************
  Highest Flow Instability Indexes
  ********************************
  Link WS02006113WS02006111 (37)
  Link WS02006238WS02006235 (25)
  Link WS02006252WS02006251 (23)
  Link WS02006111WS02006112 (23)
  Link WS02006256WS02006235 (21)
  
  
  *********************************
  Most Frequent Nonconverging Nodes
  *********************************
  Node CC-1 (20.23%)
  Node CC-2 (20.23%)
  Node JK-1 (20.23%)
  Node JK-2 (20.23%)
  Node WSC (20.23%)
  
  
  *************************
  Routing Time Step Summary
  *************************
  Minimum Time Step           :     0.00 sec
  Average Time Step           :     2.54 sec
  Maximum Time Step           :     6.43 sec
  % of Time in Steady State   :     0.00
  Average Iterations per Step :     3.88
  % of Steps Not Converging   :    20.23
  Time Step Frequencies       :
     30.000 - 13.228 sec      :     0.00 %
     13.228 -  5.833 sec      :    11.94 %
      5.833 -  2.572 sec      :    26.32 %
      2.572 -  1.134 sec      :    28.23 %
      1.134 -  0.500 sec      :    33.51 %
  
  
  ***************************
  Subcatchment Runoff Summary
  ***************************
  
  ------------------------------------------------------------------------------------------------------------------------------
                            Total      Total      Total      Total     Imperv       Perv      Total       Total     Peak  Runoff
                           Precip      Runon       Evap      Infil     Runoff     Runoff     Runoff      Runoff   Runoff   Coeff
  Subcatchment                 mm         mm         mm         mm         mm         mm         mm    10^6 ltr      LPS
  ------------------------------------------------------------------------------------------------------------------------------
  sub60                    101.95       0.00       0.00       1.87      88.53      10.37      98.90        1.30   839.08   0.970
  sub61                    101.95       0.00       0.00       2.71      83.50      14.63      98.13        1.80  1162.77   0.963
  sub62                    101.95       0.00       0.00       1.25      92.52       6.91      99.44        2.72  1646.31   0.975
  sub63                    101.95       0.00       0.00       4.98      71.43      24.60      96.02        2.18  1301.83   0.942
  sub64                    101.95       0.00       0.00       2.52      85.46      12.78      98.24        2.36  1339.28   0.964
  sub65                    101.95       0.00       0.00       2.18      87.46      11.08      98.53        2.71  1500.37   0.966
  sub66                    101.95       0.00       0.00       6.12      71.32      23.45      94.76        4.42  1967.35   0.929
  sub67                    101.95       0.00       0.00       1.20      92.57       6.96      99.53        1.85  1268.25   0.976
  sub68                    101.95       0.00       0.00       2.24      86.50      12.03      98.54        2.71  1686.15   0.967
  sub69                    101.95       0.00       0.00       2.01      86.56      13.29      99.85        3.70  1999.52   0.979
  sub70                    101.95       0.00       0.00       6.65      67.13      28.02      95.15        2.75  1107.32   0.933
  sub71                    101.95       0.00       0.00       1.28      92.48       6.88      99.36        2.60  1451.63   0.975
  sub72                    101.95       0.00       0.00       1.14      93.42       6.00      99.42        1.37   701.89   0.975
  
  
  ******************
  Node Depth Summary
  ******************
  
  ---------------------------------------------------------------------------------
                                 Average  Maximum  Maximum  Time of Max    Reported
                                   Depth    Depth      HGL   Occurrence   Max Depth
  Node                 Type       Meters   Meters   Meters  days hr:min      Meters
  ---------------------------------------------------------------------------------
  WS02003060           JUNCTION     0.22     0.38     5.32     0  02:17        0.38
  WS02003066           JUNCTION     0.18     0.30     5.85     0  02:16        0.30
  WS02003067           JUNCTION     0.47     0.70     6.02     0  02:16        0.70
  WS02003069           JUNCTION     0.24     0.43     5.01     0  02:17        0.43
  WS02003072           JUNCTION     0.30     0.50     4.87     0  02:18        0.50
  WS02003073           JUNCTION     0.17     0.30     4.36     0  02:19        0.30
  WS02004401           JUNCTION     0.56     0.85     6.85     0  02:13        0.85
  WS02004402           JUNCTION     0.59     0.88     6.84     0  02:14        0.88
  WS02004403           JUNCTION     0.61     0.89     6.82     0  02:09        0.89
  WS02004404           JUNCTION     0.68     0.96     6.81     0  02:14        0.96
  WS02004405           JUNCTION     0.68     0.96     6.81     0  02:14        0.96
  WS02004406           JUNCTION     0.69     0.96     6.79     0  02:14        0.96
  WS02004407           JUNCTION     0.16     0.30     6.61     0  02:14        0.30
  WS02004409           JUNCTION     0.36     0.67     6.44     0  02:14        0.67
  WS02004410           JUNCTION     0.38     0.68     6.40     0  02:15        0.68
  WS02004411           JUNCTION     0.41     0.69     6.37     0  02:15        0.69
  WS02004412           JUNCTION     0.43     0.70     6.34     0  02:15        0.70
  WS02004413           JUNCTION     0.58     0.86     6.33     0  02:16        0.86
  WS02006109           JUNCTION     0.64     1.23     7.84     0  03:05        1.00
  WS02006110           JUNCTION     0.64     1.34     7.92     0  03:06        1.01
  WS02006111           JUNCTION     0.17     0.29     6.99     0  03:28        0.29
  WS02006112           JUNCTION     0.72     1.06     6.95     0  02:09        1.05
  WS02006113           JUNCTION     0.26     0.46     7.35     0  03:27        0.46
  WS02006115           JUNCTION     0.45     0.75     6.89     0  02:13        0.75
  WS02006116           JUNCTION     0.53     0.83     6.87     0  02:13        0.83
  WS02006228           JUNCTION     0.64     1.49     8.14     0  03:05        1.02
  WS02006229           JUNCTION     0.61     1.58     8.27     0  03:05        1.26
  WS02006230           JUNCTION     0.62     1.84     8.59     0  03:05        1.18
  WS02006231           JUNCTION     0.42     1.56     8.68     0  03:05        0.94
  WS02006232           JUNCTION     0.56     1.61     8.65     0  03:05        1.17
  WS02006234           JUNCTION     0.49     1.93     9.09     0  03:50        1.23
  WS02006235           JUNCTION     0.53     1.89     9.06     0  03:50        1.35
  WS02006238           JUNCTION     0.56     1.92     9.06     0  03:50        1.39
  WS02006239           JUNCTION     0.52     1.83     9.04     0  03:50        1.40
  WS02006240           JUNCTION     0.49     1.70     9.00     0  03:50        1.37
  WS02006242           JUNCTION     0.55     1.55     8.82     0  02:46        1.42
  WS02006243           JUNCTION     0.47     1.40     8.82     0  02:46        1.29
  WS02006245           JUNCTION     0.47     1.31     8.79     0  02:46        1.23
  WS02006247           JUNCTION     0.49     1.26     8.76     0  02:46        1.21
  WS02006248           JUNCTION     0.46     1.10     8.69     0  01:42        1.10
  WS02006249           JUNCTION     0.49     1.09     8.69     0  01:39        1.09
  WS02006251           JUNCTION     0.48     1.52     9.19     0  01:42        1.21
  WS02006252           JUNCTION     0.34     1.50     9.74     0  00:00        0.80
  WS02006256           JUNCTION     1.12     2.35     9.28     0  00:00        2.35
  WSF200               JUNCTION     0.15     0.29     5.52     0  02:16        0.29
  YS02001580           JUNCTION     0.18     1.05     9.59     0  01:31        1.05
  YS02001583           JUNCTION     0.21     1.14     9.64     0  01:31        0.97
  YS02001586           JUNCTION     0.33     1.13     9.30     0  01:31        1.13
  YS02001590           JUNCTION     0.45     1.40     9.26     0  01:30        1.40
  YS02001593           JUNCTION     0.38     1.44     9.30     0  01:30        1.29
  YS02001596           JUNCTION     0.52     1.75     9.17     0  01:31        1.72
  YS02001600           JUNCTION     0.61     1.87     9.00     0  01:31        1.87
  YS02001601           JUNCTION     0.80     2.06     8.90     0  01:30        2.06
  YS02001602           JUNCTION     0.70     1.87     8.77     0  01:31        1.87
  YS02001605           JUNCTION     0.65     1.78     8.68     0  01:31        1.78
  YS02001607           JUNCTION     0.61     1.65     8.50     0  01:31        1.64
  YS02001610           JUNCTION     0.66     1.68     8.48     0  01:31        1.68
  YS02001613           JUNCTION     0.62     1.69     8.53     0  01:31        1.67
  YS02001616           JUNCTION     0.55     1.61     8.52     0  01:31        1.61
  YS02001619           JUNCTION     0.53     1.61     8.54     0  01:31        1.61
  YS02001622           JUNCTION     0.52     1.62     8.52     0  01:31        1.60
  YS02001625           JUNCTION     0.76     1.78     8.38     0  01:31        1.78
  YS02001629           JUNCTION     0.67     1.85     8.40     0  01:31        1.85
  YS02001633           JUNCTION     0.74     2.08     8.53     0  01:33        2.08
  YS02001641           JUNCTION     0.71     2.04     8.48     0  01:37        2.04
  YS02001644           JUNCTION     0.70     1.92     8.35     0  01:34        1.92
  YS02001647           JUNCTION     0.49     1.90     8.51     0  01:35        1.90
  YS02001649           JUNCTION     0.56     2.05     8.44     0  01:35        2.05
  YS02001652           JUNCTION     0.44     2.16     8.76     0  01:34        1.94
  YS02001655           JUNCTION     0.35     2.20     9.05     0  01:34        1.71
  YS02001658           JUNCTION     0.26     2.30     9.44     0  01:34        1.51
  YS02001661           JUNCTION     0.24     2.46     9.86     0  01:35        1.33
  YS02001664           JUNCTION     0.11     2.31    10.23     0  01:35        0.87
  YS02001745           JUNCTION     0.14     2.35     9.87     0  01:35        0.95
  YS02001748           JUNCTION     0.25     2.27     9.35     0  01:34        2.27
  YS02001751           JUNCTION     0.30     2.20     9.08     0  01:34        2.20
  YS02001754           JUNCTION     0.40     2.20     8.81     0  01:34        2.20
  YS02001757           JUNCTION     0.58     2.21     8.47     0  01:35        2.21
  YS02001759           JUNCTION     0.52     2.21     8.57     0  01:35        2.21
  YS02001762           JUNCTION     0.51     2.15     8.55     0  01:35        2.15
  YS02001765           JUNCTION     0.49     2.10     8.55     0  01:34        2.10
  YS02001767           JUNCTION     0.48     2.03     8.52     0  01:34        2.03
  YS02001770           JUNCTION     0.49     1.95     8.44     0  01:34        1.95
  YS02001774           JUNCTION     0.55     2.05     8.47     0  01:35        2.05
  YS02001779           JUNCTION     0.38     1.68     8.37     0  01:34        1.68
  YS02001783           JUNCTION     0.36     1.73     7.87     0  01:33        1.26
  YS02001784           JUNCTION     0.36     1.41     7.48     0  01:33        1.17
  YS02001786           JUNCTION     0.30     1.13     7.16     0  01:33        0.88
  YS02001788           JUNCTION     0.21     0.63     6.60     0  01:38        0.62
  YS02001790           JUNCTION     0.25     0.73     6.37     0  01:39        0.72
  YS02001791           JUNCTION     0.16     0.44     5.91     0  01:40        0.44
  YS02001793           JUNCTION     0.08     0.29     5.13     0  01:50        0.27
  YS02001882           JUNCTION     0.45     1.83     8.55     0  01:32        1.83
  YS02001884           JUNCTION     0.54     1.93     8.55     0  01:32        1.93
  YS02001887           JUNCTION     0.61     2.00     8.54     0  01:37        2.00
  YS02001890           JUNCTION     0.64     1.81     8.32     0  01:32        1.81
  YS02001895           JUNCTION     0.42     1.75     8.50     0  01:32        1.62
  YS02001898           JUNCTION     0.43     1.77     8.51     0  01:32        1.57
  YS02001901           JUNCTION     0.53     1.80     8.41     0  01:32        1.67
  YS02001904           JUNCTION     0.51     1.68     8.31     0  01:32        1.63
  YS02001907           JUNCTION     0.82     1.96     8.25     0  01:32        1.96
  YS02001910           JUNCTION     0.64     2.03     8.54     0  01:32        2.00
  YS02001915           JUNCTION     0.47     2.00     8.72     0  01:32        2.00
  YS02001918           JUNCTION     0.30     1.81     8.88     0  01:33        1.74
  YS02001920           JUNCTION     0.38     2.13     9.14     0  01:34        1.83
  YS02001923           JUNCTION     0.24     2.03     9.29     0  01:34        1.62
  YS02001926           JUNCTION     0.26     1.90     9.35     0  01:34        1.46
  YS02001929           JUNCTION     0.17     1.78     9.47     0  01:34        1.23
  YS02006553           JUNCTION     0.82     2.19     8.47     0  01:37        2.19
  YS02006556           JUNCTION     0.80     2.39     8.70     0  01:37        2.39
  YS02006558           JUNCTION     0.84     2.50     8.77     0  01:37        2.50
  YS02006561           JUNCTION     0.23     1.60     8.26     0  01:33        0.93
  YS02163301           JUNCTION     0.69     1.97     8.48     0  01:35        1.97
  YS02163601           JUNCTION     0.77     2.08     8.48     0  01:34        2.08
  YS02164001           JUNCTION     0.70     2.04     8.50     0  02:17        2.04
  CC-1                 OUTFALL      0.00     0.00     0.00     0  00:00        0.00
  CC-2                 OUTFALL      0.00     0.00     0.00     0  00:00        0.00
  JK-1                 OUTFALL      0.00     0.00     0.00     0  00:00        0.00
  JK-2                 OUTFALL      0.00     0.00     0.00     0  00:00        0.00
  WSC                  OUTFALL      0.17     0.30     0.97     0  02:19        0.30
  CC-storage           STORAGE      0.87     1.77     7.27     0  02:26        1.77
  JK-storage           STORAGE      1.68     4.23     5.03     0  01:50        4.20
  
  
  *******************
  Node Inflow Summary
  *******************
  
  -------------------------------------------------------------------------------------------------
                                  Maximum  Maximum                  Lateral       Total        Flow
                                  Lateral    Total  Time of Max      Inflow      Inflow     Balance
                                   Inflow   Inflow   Occurrence      Volume      Volume       Error
  Node                 Type           LPS      LPS  days hr:min    10^6 ltr    10^6 ltr     Percent
  -------------------------------------------------------------------------------------------------
  WS02003060           JUNCTION     16.53   553.17     0  02:16       0.476        4.99       0.047
  WS02003066           JUNCTION      0.00   536.52     0  02:16           0        4.52       0.032
  WS02003067           JUNCTION      0.00   536.48     0  02:16           0        4.52       0.093
  WS02003069           JUNCTION      0.32   553.39     0  02:17     0.00922           5       0.082
  WS02003072           JUNCTION      0.00   553.23     0  02:17           0        4.99       0.144
  WS02003073           JUNCTION      1.82   554.98     0  02:18      0.0524        5.04       0.116
  WS02004401           JUNCTION      0.00   537.24     0  02:13           0        4.62       0.225
  WS02004402           JUNCTION      0.00   536.88     0  02:13           0        4.61       0.228
  WS02004403           JUNCTION      0.00   536.91     0  02:14           0         4.6       0.222
  WS02004404           JUNCTION      0.16   536.94     0  02:14     0.00467         4.6       0.187
  WS02004405           JUNCTION      0.04   536.84     0  02:13      0.0011        4.59       0.274
  WS02004406           JUNCTION      0.00   536.92     0  02:13           0        4.58       0.457
  WS02004407           JUNCTION      0.00   536.75     0  02:14           0        4.56       0.026
  WS02004409           JUNCTION      0.00   536.72     0  02:14           0        4.56       0.060
  WS02004410           JUNCTION      0.00   536.70     0  02:15           0        4.55       0.099
  WS02004411           JUNCTION      0.00   536.64     0  02:15           0        4.55       0.126
  WS02004412           JUNCTION      0.00   536.62     0  02:15           0        4.54       0.167
  WS02004413           JUNCTION      0.00   536.60     0  02:15           0        4.53       0.301
  WS02006109           JUNCTION      1.23   562.79     0  01:51      0.0354        4.67       0.215
  WS02006110           JUNCTION      0.00   563.11     0  03:06           0        4.66       0.160
  WS02006111           JUNCTION      0.00   563.53     0  03:28           0        4.66       0.017
  WS02006112           JUNCTION      0.00   542.73     0  03:28           0        4.65       0.396
  WS02006113           JUNCTION      0.00   569.14     0  03:06           0        4.66       0.047
  WS02006115           JUNCTION      0.00   545.48     0  02:09           0        4.64       0.144
  WS02006116           JUNCTION      0.00   537.82     0  02:13           0        4.63       0.120
  WS02006228           JUNCTION      0.00   560.90     0  01:51           0        4.64       0.090
  WS02006229           JUNCTION      0.00   560.98     0  01:51           0        4.65       0.102
  WS02006230           JUNCTION     10.28   581.75     0  01:51       0.296        4.65       0.117
  WS02006231           JUNCTION      0.00   580.84     0  02:46           0        4.36       0.001
  WS02006232           JUNCTION      0.00   579.01     0  02:46           0        4.37       0.202
  WS02006234           JUNCTION      0.00   573.11     0  02:46           0        4.35      -0.332
  WS02006235           JUNCTION      0.00   563.44     0  02:46           0        4.48       0.378
  WS02006238           JUNCTION      0.00   423.43     0  03:17           0         3.5      -0.034
  WS02006239           JUNCTION      0.00   422.66     0  03:17           0        3.42      -0.027
  WS02006240           JUNCTION      0.00   419.76     0  01:45           0        3.37       0.013
  WS02006242           JUNCTION      0.00   420.49     0  03:17           0        3.36      -0.015
  WS02006243           JUNCTION      0.00   420.50     0  02:30           0        3.34      -0.193
  WS02006245           JUNCTION      0.00   420.42     0  02:30           0        3.36       0.356
  WS02006247           JUNCTION      0.00   420.33     0  02:30           0        3.36       0.006
  WS02006248           JUNCTION      0.00   420.57     0  02:30           0        3.36      -0.053
  WS02006249           JUNCTION      0.00   459.02     0  00:00           0        3.58       0.410
  WS02006251           JUNCTION      0.08   411.43     0  01:42     0.00222        3.58       0.053
  WS02006252           JUNCTION      0.00   400.00     0  00:00           0        3.56      -0.405
  WS02006256           JUNCTION      0.00   300.00     0  00:00           0        1.44      -2.387
  WSF200               JUNCTION      0.00   536.54     0  02:16           0        4.52       0.010
  YS02001580           JUNCTION      0.00   147.03     0  01:31           0     0.00473       4.381
  YS02001583           JUNCTION      0.00   248.50     0  01:31           0      0.0153      -8.813
  YS02001586           JUNCTION   1107.32  1107.32     0  01:42        2.75        2.76       0.047
  YS02001590           JUNCTION      0.00   317.97     0  02:06           0        1.73      -0.032
  YS02001593           JUNCTION      0.00   317.98     0  02:17           0        1.73      -0.003
  YS02001596           JUNCTION      0.00   317.96     0  01:44           0        1.73      -0.007
  YS02001600           JUNCTION      0.00   317.97     0  02:13           0        1.73      -0.001
  YS02001601           JUNCTION   1999.52  2317.03     0  01:40         3.7        5.43      -0.006
  YS02001602           JUNCTION      0.00   571.93     0  01:31           0        2.73       0.011
  YS02001605           JUNCTION      0.00   571.93     0  01:31           0        2.53       0.021
  YS02001607           JUNCTION      0.00   571.91     0  01:31           0        2.53       0.074
  YS02001610           JUNCTION      0.00   954.28     0  01:45           0        3.25       0.055
  YS02001613           JUNCTION      0.00   617.56     0  01:45           0        2.45       0.065
  YS02001616           JUNCTION      0.00   617.52     0  01:45           0        2.45       0.012
  YS02001619           JUNCTION   1967.35  1967.35     0  01:41        4.42        6.15      -0.001
  YS02001622           JUNCTION      0.00  1053.94     0  01:46           0         5.3      -0.011
  YS02001625           JUNCTION      0.00  1504.81     0  01:47           0        5.74       0.153
  YS02001629           JUNCTION      0.00   959.76     0  01:31           0        4.13       0.001
  YS02001633           JUNCTION   1500.57  1500.57     0  01:40        2.72        6.17       0.052
  YS02001641           JUNCTION      0.00  1443.56     0  01:33           0        5.51       0.049
  YS02001644           JUNCTION   1339.32  2102.79     0  01:39        2.36        7.87       0.029
  YS02001647           JUNCTION      0.00  1943.84     0  01:33           0        6.49       0.003
  YS02001649           JUNCTION      0.00  2223.95     0  01:33           0        8.67       0.005
  YS02001652           JUNCTION      0.00  1305.42     0  01:38           0        2.19      -0.057
  YS02001655           JUNCTION      0.15  1305.20     0  01:38     0.00443        2.19      -0.113
  YS02001658           JUNCTION      0.00  1304.96     0  01:38           0         2.2      -0.109
  YS02001661           JUNCTION      0.00  1304.38     0  01:38           0         2.2       0.031
  YS02001664           JUNCTION   1301.83  1301.83     0  01:39        2.18        2.18      -0.023
  YS02001745           JUNCTION    839.08   839.08     0  01:38         1.3         1.3       0.148
  YS02001748           JUNCTION      0.04   853.69     0  01:38      0.0013        1.31      -0.295
  YS02001751           JUNCTION      0.01   854.88     0  01:38    0.000317        1.31       0.036
  YS02001754           JUNCTION      0.26   854.73     0  01:38     0.00749        1.33      -0.138
  YS02001757           JUNCTION      0.00  3654.73     0  01:37           0        13.8       0.039
  YS02001759           JUNCTION   1162.81  1609.85     0  01:35         1.8        3.82      -0.015
  YS02001762           JUNCTION      0.00   879.58     0  01:35           0        2.02      -0.013
  YS02001765           JUNCTION      0.00   879.74     0  01:35           0        2.02      -0.012
  YS02001767           JUNCTION      0.54   880.72     0  01:35      0.0154        2.02      -0.020
  YS02001770           JUNCTION   1646.47  1646.47     0  01:39        2.73        2.78      -0.035
  YS02001774           JUNCTION      0.00   851.58     0  01:42           0       0.675       0.105
  YS02001779           JUNCTION      0.01   851.42     0  01:43    0.000144       0.628      -0.193
  YS02001783           JUNCTION      0.00  1182.47     0  01:37           0        5.22       0.003
  YS02001784           JUNCTION      1.06  1184.17     0  01:37      0.0305        5.26       0.009
  YS02001786           JUNCTION      0.06  1184.98     0  01:37     0.00162        5.26       0.013
  YS02001788           JUNCTION      0.07  1183.95     0  01:37     0.00204        5.26       0.006
  YS02001790           JUNCTION      0.15  1189.12     0  01:38     0.00446        5.26       0.032
  YS02001791           JUNCTION      0.00  1295.52     0  01:40           0        5.26      -0.036
  YS02001793           JUNCTION      0.00  1261.73     0  01:38           0        5.26       0.007
  YS02001882           JUNCTION      0.00   106.57     0  01:32           0      0.0129       4.584
  YS02001884           JUNCTION      0.00   131.82     0  01:32           0      0.0486       5.400
  YS02001887           JUNCTION   1268.70  1268.74     0  01:38        1.86         1.9       0.223
  YS02001890           JUNCTION      0.00  1268.77     0  01:38           0        1.86       0.256
  YS02001895           JUNCTION      0.00   547.50     0  01:33           0        1.48       0.117
  YS02001898           JUNCTION      0.00   547.25     0  01:33           0        1.48      -0.009
  YS02001901           JUNCTION      0.00   546.25     0  01:33           0        1.48       0.226
  YS02001904           JUNCTION      0.00   545.00     0  01:33           0        1.49       0.177
  YS02001907           JUNCTION      0.00  3026.68     0  01:39           0        5.68       0.290
  YS02001910           JUNCTION      0.00  1992.92     0  01:39           0        4.01       0.174
  YS02001915           JUNCTION   1451.65  2154.74     0  01:40         2.6         4.1       0.036
  YS02001918           JUNCTION      0.00   704.96     0  01:40           0        1.53      -0.002
  YS02001920           JUNCTION      2.87   705.12     0  01:40      0.0827        1.51       0.056
  YS02001923           JUNCTION      0.04   778.59     0  01:33     0.00109        1.41      -0.056
  YS02001926           JUNCTION      0.05  1071.13     0  01:33      0.0015        1.39      -0.035
  YS02001929           JUNCTION    701.89   864.70     0  01:34        1.37        1.37      -0.023
  YS02006553           JUNCTION      0.00   791.79     0  02:09           0        2.91       0.402
  YS02006556           JUNCTION      0.00   791.73     0  02:09           0        2.93       0.265
  YS02006558           JUNCTION   1687.03  1687.03     0  01:39        2.74        5.45       0.065
  YS02006561           JUNCTION      0.00  1183.98     0  01:33           0        5.22      -0.003
  YS02163301           JUNCTION      0.00   919.26     0  01:33           0        4.12       0.030
  YS02163601           JUNCTION      0.11  1443.55     0  01:33     0.00317         5.5       0.088
  YS02164001           JUNCTION      0.00  1443.47     0  01:33           0         5.5       0.038
  CC-1                 OUTFALL       0.00   683.00     0  00:00           0        5.74       0.000
  CC-2                 OUTFALL       0.00   683.00     0  00:00           0        5.36       0.000
  JK-1                 OUTFALL       0.00  1000.00     0  00:00           0        2.07       0.000
  JK-2                 OUTFALL       0.00  1000.00     0  00:00           0        1.89       0.000
  WSC                  OUTFALL       0.00   554.93     0  02:19           0        5.03       0.000
  CC-storage           STORAGE       0.00  3654.17     0  01:37           0          16      -0.204
  JK-storage           STORAGE       0.00  1308.20     0  01:40           0        5.41      -0.325
  
  
  **********************
  Node Surcharge Summary
  **********************
  
  Surcharging occurs when water rises above the top of the highest conduit.
  ---------------------------------------------------------------------
                                               Max. Height   Min. Depth
                                   Hours       Above Crown    Below Rim
  Node                 Type      Surcharged         Meters       Meters
  ---------------------------------------------------------------------
  WS02006109           JUNCTION        2.06          0.407        1.413
  WS02006110           JUNCTION        0.69          0.430        1.420
  WS02006112           JUNCTION        0.69          0.063        1.617
  WS02006228           JUNCTION        2.04          0.663        1.537
  WS02006229           JUNCTION        2.09          0.780        1.670
  WS02006230           JUNCTION        0.70          0.765        0.805
  WS02006231           JUNCTION        0.83          0.847        0.683
  WS02006232           JUNCTION        2.20          0.909        0.571
  WS02006234           JUNCTION        1.16          1.214        0.026
  WS02006235           JUNCTION        2.06          1.181        0.109
  WS02006238           JUNCTION        2.13          1.198        0.232
  WS02006239           JUNCTION        2.02          1.087        0.203
  WS02006240           JUNCTION        2.05          0.994        0.396
  WS02006242           JUNCTION        2.12          0.820        0.000
  WS02006243           JUNCTION        2.06          0.690        0.080
  WS02006245           JUNCTION        2.03          0.599        0.251
  WS02006247           JUNCTION        2.05          0.547        0.213
  WS02006248           JUNCTION        2.00          0.380        0.000
  WS02006249           JUNCTION        2.02          0.390        0.000
  WS02006251           JUNCTION        0.87          0.488        0.692
  WS02006252           JUNCTION        2.23          1.100        0.000
  WS02006256           JUNCTION        7.12          2.050        0.000
  YS02001580           JUNCTION        0.97          0.450        0.000
  YS02001583           JUNCTION        0.98          0.500        0.000
  YS02001586           JUNCTION        1.16          0.510        0.000
  YS02001590           JUNCTION        1.25          0.750        0.000
  YS02001593           JUNCTION        1.25          0.818        0.022
  YS02001596           JUNCTION        1.37          1.020        0.050
  YS02001600           JUNCTION        1.55          1.190        0.000
  YS02001601           JUNCTION        1.78          1.440        0.000
  YS02001602           JUNCTION        1.71          1.270        0.000
  YS02001605           JUNCTION        1.67          1.180        0.000
  YS02001607           JUNCTION        1.25          0.651        0.029
  YS02001610           JUNCTION        1.28          0.680        0.000
  YS02001613           JUNCTION        1.24          0.693        0.007
  YS02001616           JUNCTION        1.20          0.610        0.000
  YS02001619           JUNCTION        1.18          0.610        0.000
  YS02001622           JUNCTION        1.18          0.620        0.000
  YS02001625           JUNCTION        1.39          0.780        0.000
  YS02001629           JUNCTION        1.12          0.470        0.000
  YS02001633           JUNCTION        1.42          1.060        0.000
  YS02001641           JUNCTION        1.38          1.041        0.059
  YS02001644           JUNCTION        1.36          0.920        0.000
  YS02001647           JUNCTION        1.12          0.900        0.000
  YS02001649           JUNCTION        1.29          1.050        0.000
  YS02001652           JUNCTION        1.04          1.130        0.000
  YS02001655           JUNCTION        0.76          1.200        0.000
  YS02001658           JUNCTION        0.41          1.300        0.000
  YS02001661           JUNCTION        0.17          1.390        0.000
  YS02001664           JUNCTION        0.01          1.310        0.000
  YS02001745           JUNCTION        0.01          1.350        0.000
  YS02001748           JUNCTION        0.32          1.190        0.000
  YS02001751           JUNCTION        0.56          1.200        0.000
  YS02001754           JUNCTION        0.92          1.150        0.000
  YS02001757           JUNCTION        1.37          1.210        0.000
  YS02001759           JUNCTION        1.27          1.210        0.000
  YS02001762           JUNCTION        1.22          1.150        0.000
  YS02001765           JUNCTION        1.17          1.100        0.000
  YS02001767           JUNCTION        1.13          1.030        0.000
  YS02001770           JUNCTION        1.09          0.920        0.000
  YS02001774           JUNCTION        1.20          1.050        0.000
  YS02001779           JUNCTION        0.88          0.680        0.000
  YS02001783           JUNCTION        0.81          0.932        0.668
  YS02001784           JUNCTION        0.78          0.614        0.876
  YS02001786           JUNCTION        0.66          0.329        1.101
  YS02001882           JUNCTION        0.74          0.830        0.000
  YS02001884           JUNCTION        0.75          0.870        0.000
  YS02001887           JUNCTION        0.80          0.950        0.000
  YS02001890           JUNCTION        0.81          0.760        0.000
  YS02001895           JUNCTION        0.73          0.750        0.000
  YS02001898           JUNCTION        0.72          0.740        0.000
  YS02001901           JUNCTION        0.78          0.799        0.071
  YS02001904           JUNCTION        0.77          0.681        0.169
  YS02001907           JUNCTION        1.04          0.950        0.000
  YS02001910           JUNCTION        0.85          1.030        0.070
  YS02001915           JUNCTION        0.74          1.000        0.000
  YS02001918           JUNCTION        0.64          0.810        0.000
  YS02001920           JUNCTION        0.66          1.133        0.007
  YS02001923           JUNCTION        0.27          0.820        0.000
  YS02001926           JUNCTION        0.30          0.900        0.000
  YS02001929           JUNCTION        0.17          0.780        0.000
  YS02006553           JUNCTION        1.08          1.190        0.000
  YS02006556           JUNCTION        0.94          1.350        0.000
  YS02006558           JUNCTION        0.93          1.400        0.000
  YS02006561           JUNCTION        0.61          0.797        0.353
  YS02163301           JUNCTION        1.40          0.968        0.062
  YS02163601           JUNCTION        1.46          1.080        0.000
  YS02164001           JUNCTION        1.38          1.044        0.056
  
  
  *********************
  Node Flooding Summary
  *********************
  
  Flooding refers to all water that overflows a node, whether it ponds or not.
  --------------------------------------------------------------------------
                                                             Total   Maximum
                                 Maximum   Time of Max       Flood    Ponded
                        Hours       Rate    Occurrence      Volume     Depth
  Node                 Flooded       LPS   days hr:min    10^6 ltr    Meters
  --------------------------------------------------------------------------
  WS02006242              0.01      9.82      0  03:50       0.000     0.000
  WS02006248              0.01     45.14      0  01:42       0.000     0.000
  WS02006249              0.84    127.53      0  01:42       0.205     0.000
  WS02006252              0.01    245.63      0  00:00       0.000     0.000
  WS02006256              1.33    295.82      0  02:46       0.445     0.000
  YS02001580              0.01     93.82      0  01:31       0.000     0.000
  YS02001583              0.01    215.23      0  01:31       0.000     0.000
  YS02001586              0.82    789.71      0  01:42       1.020     0.000
  YS02001590              0.01    112.41      0  01:30       0.000     0.000
  YS02001600              0.01      3.65      0  01:31       0.000     0.000
  YS02001601              1.06   1919.07      0  01:40       2.699     0.000
  YS02001602              0.95     62.08      0  02:06       0.196     0.000
  YS02001605              0.01      5.81      0  01:31       0.000     0.000
  YS02001610              0.86    953.66      0  01:45       1.518     0.000
  YS02001616              0.07     51.12      0  01:31       0.000     0.000
  YS02001619              0.19    303.30      0  01:41       0.123     0.000
  YS02001622              0.01    317.26      0  01:31       0.001     0.000
  YS02001625              0.82   1504.70      0  01:47       2.265     0.000
  YS02001629              0.25    520.24      0  01:37       0.243     0.000
  YS02001633              0.01      2.88      0  01:33       0.000     0.000
  YS02001644              0.35   2102.70      0  01:39       1.373     0.000
  YS02001647              0.01      2.13      0  01:35       0.000     0.000
  YS02001649              0.01    210.50      0  01:35       0.004     0.000
  YS02001652              0.01    113.95      0  01:34       0.000     0.000
  YS02001655              0.01    354.14      0  01:34       0.001     0.000
  YS02001658              0.01    480.27      0  01:35       0.001     0.000
  YS02001661              0.01    334.11      0  01:35       0.000     0.000
  YS02001664              0.01    228.11      0  01:35       0.000     0.000
  YS02001745              0.01    332.47      0  01:35       0.000     0.000
  YS02001748              0.01    565.44      0  01:34       0.002     0.000
  YS02001751              0.01    317.11      0  01:34       0.000     0.000
  YS02001754              0.01     92.56      0  01:34       0.000     0.000
  YS02001757              0.01     20.97      0  01:35       0.000     0.000
  YS02001759              0.01      7.37      0  01:35       0.000     0.000
  YS02001762              0.01      9.68      0  01:35       0.000     0.000
  YS02001765              0.01     33.75      0  01:34       0.000     0.000
  YS02001767              0.01    120.80      0  01:34       0.000     0.000
  YS02001770              0.13    423.82      0  01:39       0.119     0.000
  YS02001774              0.01      1.90      0  01:35       0.000     0.000
  YS02001779              0.32    851.23      0  01:43       0.607     0.000
  YS02001882              0.01     50.27      0  01:32       0.000     0.000
  YS02001884              0.01     21.94      0  01:32       0.000     0.000
  YS02001887              0.01      0.72      0  01:37       0.000     0.000
  YS02001890              0.29    751.31      0  01:38       0.375     0.000
  YS02001895              0.01     89.15      0  01:32       0.000     0.000
  YS02001898              0.01    187.85      0  01:32       0.000     0.000
  YS02001907              0.58   3026.29      0  01:39       2.945     0.000
  YS02001915              0.09    208.79      0  01:32       0.033     0.000
  YS02001918              0.01    181.64      0  01:34       0.003     0.000
  YS02001923              0.01    189.42      0  01:34       0.001     0.000
  YS02001926              0.01    871.34      0  01:34       0.005     0.000
  YS02001929              0.01    676.41      0  01:34       0.002     0.000
  YS02006553              0.01      0.40      0  01:37       0.000     0.000
  YS02006556              0.01      0.17      0  01:37       0.000     0.000
  YS02006558              0.01      0.73      0  01:37       0.000     0.000
  YS02163601              0.01      5.12      0  02:17       0.000     0.000
  
  
  **********************
  Storage Volume Summary
  **********************
  
  ------------------------------------------------------------------------------------------------
                         Average    Avg   Evap  Exfil     Maximum    Max    Time of Max    Maximum
                          Volume   Pcnt   Pcnt   Pcnt      Volume   Pcnt     Occurrence    Outflow
  Storage Unit           1000 m³   Full   Loss   Loss     1000 m³   Full    days hr:min        LPS
  ------------------------------------------------------------------------------------------------
  CC-storage               2.434   38.0    0.0    0.0       4.932   76.9       0  02:26    1783.53
  JK-storage               0.085   29.0    0.0    0.0       0.213   73.0       0  01:50    2300.00
  
  
  ***********************
  Outfall Loading Summary
  ***********************
  
  -----------------------------------------------------------
                         Flow       Avg       Max       Total
                         Freq      Flow      Flow      Volume
  Outfall Node           Pcnt       LPS       LPS    10^6 ltr
  -----------------------------------------------------------
  CC-1                  47.82    683.00    683.00       5.737
  CC-2                  47.76    683.00    683.00       5.364
  JK-1                  11.79   1000.00   1000.00       2.065
  JK-2                  10.97   1000.00   1000.00       1.892
  WSC                   99.95    237.61    554.93       5.033
  -----------------------------------------------------------
  System                43.66   3603.61   3833.09      20.091
  
  
  ********************
  Link Flow Summary
  ********************
  
  -----------------------------------------------------------------------------
                                 Maximum  Time of Max   Maximum    Max/    Max/
                                  |Flow|   Occurrence   |Veloc|    Full    Full
  Link                 Type          LPS  days hr:min     m/sec    Flow   Depth
  -----------------------------------------------------------------------------
  1                    CONDUIT    554.93     0  02:19      2.83    0.19    0.30
  WS02003060WS02003069 CONDUIT    553.07     0  02:17      1.64    0.22    0.34
  WS02003066WSF200     CONDUIT    536.54     0  02:16      2.85    0.09    0.22
  WS02003067WS02003066 CONDUIT    536.52     0  02:16      1.21    0.17    0.42
  WS02003069WS02003072 CONDUIT    553.23     0  02:17      1.37    0.27    0.39
  WS02003072WS02003073 CONDUIT    553.16     0  02:18      1.44    1.19    0.37
  WS02004401WS02004402 CONDUIT    536.88     0  02:13      0.94    0.64    0.86
  WS02004402WS02004403 CONDUIT    536.91     0  02:14      0.94    0.77    0.88
  WS02004403WS02004404 CONDUIT    536.78     0  02:14      0.92    0.39    0.93
  WS02004404WS02004405 CONDUIT    536.80     0  02:13      1.03    5.26    0.96
  WS02004405WS02004406 CONDUIT    536.92     0  02:13      0.96    1.06    0.96
  WS02004406WS02004407 CONDUIT    536.75     0  02:14      1.04    0.24    0.63
  WS02004407WS02004409 CONDUIT    536.72     0  02:14      1.51    0.19    0.48
  WS02004409WS02004410 CONDUIT    536.70     0  02:15      0.97    0.69    0.67
  WS02004410WS02004411 CONDUIT    536.64     0  02:15      0.93    0.73    0.69
  WS02004411WS02004412 CONDUIT    536.62     0  02:15      0.92    0.76    0.69
  WS02004412WS02004413 CONDUIT    536.60     0  02:15      0.86    0.36    0.78
  WS02004413WS02003067 CONDUIT    536.48     0  02:16      1.11    0.23    0.59
  WS02006109WS02006110 CONDUIT    563.11     0  03:06      1.12    1.08    1.00
  WS02006110WS02006113 CONDUIT    569.14     0  03:06      1.38    0.52    0.79
  WS02006111WS02006112 CONDUIT    542.73     0  03:28      1.83    0.26    0.67
  WS02006112WS02006115 CONDUIT    545.48     0  02:09      0.77    0.32    0.87
  WS02006113WS02006111 CONDUIT    563.53     0  03:28      2.47    0.68    0.46
  WS02006115WS02006116 CONDUIT    537.82     0  02:13      0.97    0.69    0.76
  WS02006116WS02004401 CONDUIT    537.24     0  02:13      0.96    0.74    0.84
  WS02006228WS02006109 CONDUIT    561.56     0  01:51      1.12    2.45    1.00
  WS02006229WS02006228 CONDUIT    560.90     0  01:51      1.14    1.86    1.00
  WS02006230WS02006229 CONDUIT    560.98     0  01:51      1.46   12.48    1.00
  WS02006231WS02006230 CONDUIT    571.47     0  01:51      1.56    8.67    1.00
  WS02006232WS02006231 CONDUIT    580.84     0  02:46      1.52    1.22    1.00
  WS02006234WS02006232 CONDUIT    579.01     0  02:46      1.50    1.17    1.00
  WS02006235WS02006234 CONDUIT    573.11     0  02:46      1.49    6.05    1.00
  WS02006238WS02006235 CONDUIT    424.92     0  03:17      1.45    0.95    1.00
  WS02006239WS02006238 CONDUIT    423.43     0  03:17      1.10    1.35    1.00
  WS02006240WS02006239 CONDUIT    422.66     0  03:17      1.24    1.33    1.00
  WS02006242WS02006240 CONDUIT    419.76     0  01:45      1.13    1.67    1.00
  WS02006243WS02006242 CONDUIT    420.49     0  03:17      1.40    0.90    1.00
  WS02006245WS02006243 CONDUIT    420.50     0  02:30      1.45    1.24    1.00
  WS02006247WS02006245 CONDUIT    420.42     0  02:30      1.43    3.33    1.00
  WS02006248WS02006247 CONDUIT    420.33     0  02:30      1.44    0.91    1.00
  WS02006249WS02006248 CONDUIT    420.57     0  02:30      1.36    2.30    1.00
  WS02006251WS02006249 CONDUIT    459.02     0  00:00      1.99    1.32    1.00
  WS02006252WS02006251 CONDUIT    411.36     0  01:42     24.61    1.51    1.00
  WS02006256WS02006235 CONDUIT    288.91     0  00:00      4.23    3.06    1.00
  WSF200WS02003060     CONDUIT    536.64     0  02:16      2.06    0.12    0.28
  YS02001580YS02001583 CONDUIT    147.03     0  01:31      0.84    0.57    1.00
  YS02001583YS02001586 CONDUIT    188.12     0  01:31      0.84    0.28    1.00
  YS02001586YS02001590 CONDUIT    317.97     0  02:06      1.27    0.56    1.00
  YS02001590YS02001593 CONDUIT    317.98     0  02:17      1.12    2.00    1.00
  YS02001593YS02001596 CONDUIT    317.96     0  01:44      1.73    0.50    1.00
  YS02001596YS02001600 CONDUIT    317.97     0  02:13      1.24    0.62    1.00
  YS02001600YS02001601 CONDUIT    318.13     0  02:06      1.13    0.55    1.00
  YS02001601YS02001602 CONDUIT    571.93     0  01:31      2.02    2.07    1.00
  YS02001602YS02001605 CONDUIT    571.93     0  01:31      2.02   12.10    1.00
  YS02001605YS02001607 CONDUIT    571.91     0  01:31      2.02    3.14    1.00
  YS02001607YS02001610 CONDUIT    556.77     0  01:31      0.71    0.53    1.00
  YS02001610YS02001613 CONDUIT    617.51     0  01:45      0.79    0.71    1.00
  YS02001613YS02001616 CONDUIT    617.56     0  01:45      0.79    0.53    1.00
  YS02001616YS02001619 CONDUIT    617.52     0  01:45      0.79    1.07    1.00
  YS02001619YS02001622 CONDUIT   1053.94     0  01:46      1.34    1.55    1.00
  YS02001622YS02001625 CONDUIT   1053.67     0  01:43      1.34    0.56    1.00
  YS02001625YS02001629 CONDUIT    959.76     0  01:31      1.22    0.46    1.00
  YS02001629YS02163301 CONDUIT    919.26     0  01:33      1.17    1.13    1.00
  YS02001633YS02163601 CONDUIT   1443.44     0  01:33      1.84    1.52    1.00
  YS02001641YS02001644 CONDUIT   1443.38     0  01:33      1.84    4.67    1.00
  YS02001644YS02001647 CONDUIT   1943.84     0  01:33      2.48    1.14    1.00
  YS02001647YS02001649 CONDUIT   1931.65     0  01:33      2.46    1.02    1.00
  YS02001649YS02001757 CONDUIT   2220.65     0  01:33      2.83    1.35    1.00
  YS02001652YS02001649 CONDUIT   1305.58     0  01:38      1.66    0.65    1.00
  YS02001655YS02001652 CONDUIT   1305.42     0  01:38      1.66    0.63    1.00
  YS02001658YS02001655 CONDUIT   1305.05     0  01:38      2.03    0.55    1.00
  YS02001661YS02001658 CONDUIT   1304.96     0  01:38      2.44    0.51    1.00
  YS02001664YS02001661 CONDUIT   1304.38     0  01:38      2.53    0.41    1.00
  YS02001745YS02001748 CONDUIT    853.64     0  01:38      2.38    0.33    1.00
  YS02001748YS02001751 CONDUIT    854.87     0  01:38      1.87    0.43    1.00
  YS02001751YS02001754 CONDUIT    854.47     0  01:38      1.59    0.41    1.00
  YS02001754YS02001757 CONDUIT    855.19     0  01:38      1.09    0.34    1.00
  YS02001757CaochengTiaoxuchi CONDUIT   3654.17     0  01:37      5.04    1.58    1.00
  YS02001759YS02001757 CONDUIT   1609.29     0  01:35      2.05    1.14    1.00
  YS02001762YS02001759 CONDUIT    879.82     0  01:35      1.12    1.01    1.00
  YS02001765YS02001762 CONDUIT    879.58     0  01:35      1.12    0.82    1.00
  YS02001767YS02001765 CONDUIT    879.74     0  01:35      1.12    1.11    1.00
  YS02001770YS02001767 CONDUIT    880.19     0  01:35      1.12    3.49    1.00
  YS02001774YS02001770 CONDUIT    851.58     0  01:42      1.08    0.54    1.00
  YS02001779YS02001774 CONDUIT    851.41     0  01:43      1.08    0.43    1.00
  YS02001783YS02001784 CONDUIT   1183.11     0  01:37      2.35    1.63    1.00
  YS02001784YS02001785 CONDUIT   1184.92     0  01:37      2.36    2.76    1.00
  YS02001786YS02001788 CONDUIT   1183.88     0  01:37      2.51    2.28    0.89
  YS02001788YS02001790 CONDUIT   1188.97     0  01:38      2.74    0.88    0.85
  YS02001790YS02001791 CONDUIT   1295.52     0  01:40      3.43    1.41    0.71
  YS02001791YS02001793 CONDUIT   1261.73     0  01:38      6.78    0.54    0.44
  YS02001793JiankangQianchi CONDUIT   1308.20     0  01:40      2.60    0.10    0.65
  YS02001882YS02001884 CONDUIT    106.57     0  01:32      0.19    0.12    1.00
  YS02001884YS02001887 CONDUIT    131.82     0  01:32      0.17    0.18    1.00
  YS02001887YS02001890 CONDUIT   1268.77     0  01:38      1.62    2.17    1.00
  YS02001890YS02001895 CONDUIT    547.50     0  01:33      0.70    0.26    1.00
  YS02001895YS02001898 CONDUIT    547.25     0  01:33      0.70    0.95    1.00
  YS02001898YS02001901 CONDUIT    546.25     0  01:33      0.70    0.35    1.00
  YS02001901YS02001904 CONDUIT    545.00     0  01:33      0.69    0.85    1.00
  YS02001904YS02001907 CONDUIT    545.81     0  01:33      0.69    0.19    1.00
  YS02001907YS02006553 CONDUIT    791.79     0  02:09      0.88    0.93    1.00
  YS02001910YS02001907 CONDUIT   1992.94     0  01:40      2.54    1.12    1.00
  YS02001915YS02001910 CONDUIT   1992.92     0  01:39      2.54    0.99    1.00
  YS02001918YS02001915 CONDUIT    704.91     0  01:40      0.90    0.39    1.00
  YS02001920YS02001918 CONDUIT    704.96     0  01:40      0.90    0.68    1.00
  YS02001923YS02001920 CONDUIT    702.25     0  01:40      0.89    0.32    1.00
  YS02001926YS02001923 CONDUIT    852.34     0  01:33      1.30    1.22    1.00
  YS02001929YS02001926 CONDUIT    702.01     0  01:40      1.20    0.33    1.00
  YS02006553YS02006556 CONDUIT    791.73     0  02:09      1.01    0.68    1.00
  YS02006556YS02006558 CONDUIT    792.77     0  02:09      1.01    0.63    1.00
  YS02006558YS02006561 CONDUIT   1183.98     0  01:33      4.19    2.62    1.00
  YS02006561YS02001783 CONDUIT   1182.47     0  01:37      2.35    0.61    1.00
  YS02163301YS02001633 CONDUIT    919.73     0  01:33      1.17    0.86    1.00
  YS02163601YS02164001 CONDUIT   1443.47     0  01:33      1.84    1.28    1.00
  YS02164001YS02001641 CONDUIT   1443.56     0  01:33      1.84    1.97    1.00
  CC-R1                PUMP       683.00     0  00:00              1.00
  CC-R2                PUMP       683.00     0  00:00              1.00
  CC-S1                PUMP       200.00     0  00:00              1.00
  CC-S2                PUMP       200.00     0  00:00              1.00
  JK-R1                PUMP      1000.00     0  00:00              1.00
  JK-R2                PUMP      1000.00     0  00:00              1.00
  JK-S                 PUMP       300.00     0  00:00              1.00
  
  
  ***************************
  Flow Classification Summary
  ***************************
  
  -------------------------------------------------------------------------------------
                      Adjusted    ---------- Fraction of Time in Flow Class ---------- 
                       /Actual         Up    Down  Sub   Sup   Up    Down  Norm  Inlet 
  Conduit               Length    Dry  Dry   Dry   Crit  Crit  Crit  Crit  Ltd   Ctrl  
  -------------------------------------------------------------------------------------
  1                       1.00   0.00  0.00  0.00  0.00  1.00  0.00  0.00  0.41  0.00
  WS02003060WS02003069    1.00   0.00  0.00  0.00  0.98  0.02  0.00  0.00  0.70  0.00
  WS02003066WSF200        1.00   0.07  0.00  0.00  0.00  0.93  0.00  0.00  0.81  0.00
  WS02003067WS02003066    1.00   0.07  0.01  0.00  0.93  0.00  0.00  0.00  0.00  0.00
  WS02003069WS02003072    1.00   0.00  0.00  0.00  0.99  0.01  0.00  0.00  0.71  0.00
  WS02003072WS02003073    1.00   0.00  0.00  0.00  0.00  0.00  0.00  1.00  0.00  0.00
  WS02004401WS02004402    1.00   0.02  0.00  0.00  0.98  0.00  0.00  0.00  0.00  0.00
  WS02004402WS02004403    1.00   0.02  0.00  0.00  0.97  0.00  0.00  0.00  0.00  0.00
  WS02004403WS02004404    1.00   0.00  0.03  0.00  0.97  0.00  0.00  0.00  0.00  0.00
  WS02004404WS02004405    1.00   0.00  0.00  0.00  1.00  0.00  0.00  0.00  0.00  0.00
  WS02004405WS02004406    1.00   0.00  0.00  0.00  1.00  0.00  0.00  0.00  0.00  0.00
  WS02004406WS02004407    1.00   0.00  0.04  0.00  0.95  0.00  0.00  0.00  0.00  0.00
  WS02004407WS02004409    1.00   0.05  0.00  0.00  0.94  0.01  0.00  0.00  0.95  0.00
  WS02004409WS02004410    1.00   0.05  0.00  0.00  0.95  0.00  0.00  0.00  0.00  0.00
  WS02004410WS02004411    1.00   0.05  0.00  0.00  0.95  0.00  0.00  0.00  0.00  0.00
  WS02004411WS02004412    1.00   0.05  0.00  0.00  0.95  0.00  0.00  0.00  0.00  0.00
  WS02004412WS02004413    1.00   0.05  0.00  0.00  0.95  0.00  0.00  0.00  0.00  0.00
  WS02004413WS02003067    1.00   0.05  0.01  0.00  0.00  0.00  0.93  0.00  0.00  0.00
  WS02006109WS02006110    1.00   0.00  0.01  0.00  0.98  0.00  0.01  0.00  0.00  0.00
  WS02006110WS02006113    1.00   0.01  0.01  0.00  0.98  0.00  0.00  0.00  0.00  0.00
  WS02006111WS02006112    1.00   0.02  0.00  0.00  0.98  0.00  0.00  0.00  0.98  0.00
  WS02006112WS02006115    1.00   0.02  0.00  0.00  0.97  0.00  0.00  0.00  0.00  0.00
  WS02006113WS02006111    1.00   0.02  0.00  0.00  0.00  0.98  0.00  0.00  0.11  0.00
  WS02006115WS02006116    1.00   0.02  0.00  0.00  0.97  0.00  0.00  0.01  0.00  0.00
  WS02006116WS02004401    1.00   0.02  0.00  0.00  0.98  0.00  0.00  0.00  0.00  0.00
  WS02006228WS02006109    1.00   0.00  0.00  0.00  1.00  0.00  0.00  0.00  0.00  0.00
  WS02006229WS02006228    1.00   0.00  0.00  0.00  0.99  0.00  0.00  0.01  0.00  0.00
  WS02006230WS02006229    1.00   0.00  0.00  0.00  0.99  0.00  0.00  0.01  0.02  0.00
  WS02006231WS02006230    1.00   0.00  0.00  0.00  0.29  0.00  0.70  0.00  0.00  0.00
  WS02006232WS02006231    1.00   0.00  0.00  0.00  0.99  0.00  0.01  0.00  0.00  0.00
  WS02006234WS02006232    1.00   0.00  0.00  0.00  1.00  0.00  0.00  0.00  0.04  0.00
  WS02006235WS02006234    1.00   0.00  0.00  0.00  0.92  0.00  0.08  0.00  0.00  0.00
  WS02006238WS02006235    1.00   0.00  0.00  0.00  1.00  0.00  0.00  0.00  0.01  0.00
  WS02006239WS02006238    1.00   0.00  0.00  0.00  1.00  0.00  0.00  0.00  0.10  0.00
  WS02006240WS02006239    1.00   0.00  0.00  0.00  0.70  0.00  0.00  0.30  0.05  0.00
  WS02006242WS02006240    1.00   0.00  0.00  0.00  0.99  0.00  0.00  0.00  0.00  0.00
  WS02006243WS02006242    1.00   0.00  0.00  0.00  0.99  0.00  0.00  0.00  0.61  0.00
  WS02006245WS02006243    1.00   0.00  0.00  0.00  0.80  0.00  0.00  0.20  0.00  0.00
  WS02006247WS02006245    1.00   0.00  0.00  0.00  0.96  0.00  0.00  0.04  0.00  0.00
  WS02006248WS02006247    1.00   0.00  0.00  0.00  0.98  0.00  0.00  0.02  0.54  0.00
  WS02006249WS02006248    1.00   0.00  0.00  0.00  0.43  0.00  0.57  0.00  0.00  0.00
  WS02006251WS02006249    1.00   0.00  0.00  0.00  0.99  0.01  0.00  0.00  0.59  0.00
  WS02006252WS02006251    1.00   0.00  0.47  0.00  0.11  0.00  0.42  0.00  0.00  0.00
  WS02006256WS02006235    1.00   0.00  0.00  0.00  0.97  0.03  0.00  0.00  0.01  0.00
  WSF200WS02003060        1.00   0.00  0.07  0.00  0.47  0.46  0.00  0.00  0.61  0.00
  YS02001580YS02001583    1.00   0.19  0.56  0.00  0.25  0.00  0.00  0.00  0.66  0.00
  YS02001583YS02001586    1.00   0.41  0.29  0.00  0.30  0.00  0.00  0.00  0.66  0.00
  YS02001586YS02001590    1.00   0.13  0.00  0.00  0.45  0.04  0.00  0.39  0.32  0.00
  YS02001590YS02001593    1.00   0.13  0.01  0.00  0.17  0.00  0.70  0.00  0.00  0.00
  YS02001593YS02001596    1.00   0.13  0.00  0.00  0.19  0.01  0.00  0.67  0.02  0.00
  YS02001596YS02001600    1.00   0.13  0.00  0.00  0.23  0.01  0.00  0.62  0.03  0.00
  YS02001600YS02001601    1.00   0.13  0.01  0.00  0.86  0.00  0.00  0.00  0.58  0.00
  YS02001601YS02001602    1.00   0.13  0.01  0.00  0.87  0.00  0.00  0.00  0.00  0.00
  YS02001602YS02001605    1.00   0.13  0.00  0.00  0.87  0.00  0.00  0.00  0.00  0.00
  YS02001605YS02001607    1.00   0.13  0.00  0.00  0.87  0.00  0.00  0.00  0.00  0.00
  YS02001607YS02001610    1.00   0.13  0.01  0.00  0.86  0.00  0.00  0.00  0.01  0.00
  YS02001610YS02001613    1.00   0.13  0.00  0.00  0.87  0.00  0.00  0.00  0.00  0.00
  YS02001613YS02001616    1.00   0.13  0.00  0.00  0.87  0.00  0.00  0.00  0.00  0.00
  YS02001616YS02001619    1.00   0.13  0.00  0.00  0.87  0.00  0.00  0.00  0.00  0.00
  YS02001619YS02001622    1.00   0.13  0.00  0.00  0.87  0.00  0.00  0.00  0.28  0.00
  YS02001622YS02001625    1.00   0.13  0.00  0.00  0.87  0.00  0.00  0.00  0.03  0.00
  YS02001625YS02001629    1.00   0.13  0.04  0.00  0.21  0.00  0.63  0.00  0.00  0.00
  YS02001629YS02163301    1.00   0.14  0.01  0.00  0.85  0.00  0.00  0.00  0.00  0.00
  YS02001633YS02163601    1.00   0.00  0.01  0.00  0.99  0.00  0.00  0.00  0.14  0.00
  YS02001641YS02001644    1.00   0.00  0.01  0.00  0.99  0.00  0.00  0.00  0.00  0.00
  YS02001644YS02001647    1.00   0.00  0.16  0.00  0.84  0.00  0.00  0.00  0.00  0.00
  YS02001647YS02001649    1.00   0.00  0.16  0.00  0.58  0.26  0.00  0.00  0.56  0.00
  YS02001649YS02001757    1.00   0.00  0.00  0.00  0.73  0.27  0.00  0.00  0.43  0.00
  YS02001652YS02001649    1.00   0.00  0.00  0.00  0.98  0.02  0.00  0.00  0.71  0.00
  YS02001655YS02001652    1.00   0.00  0.00  0.00  0.23  0.01  0.00  0.76  0.03  0.00
  YS02001658YS02001655    1.00   0.00  0.14  0.00  0.72  0.14  0.00  0.00  0.64  0.00
  YS02001661YS02001658    1.00   0.14  0.00  0.00  0.56  0.30  0.00  0.00  0.68  0.00
  YS02001664YS02001661    1.00   0.13  0.00  0.00  0.78  0.10  0.00  0.00  0.83  0.00
  YS02001745YS02001748    1.00   0.00  0.00  0.00  0.16  0.01  0.00  0.83  0.06  0.00
  YS02001748YS02001751    1.00   0.00  0.00  0.00  0.88  0.12  0.00  0.00  0.75  0.00
  YS02001751YS02001754    1.00   0.00  0.00  0.00  0.22  0.00  0.00  0.78  0.02  0.00
  YS02001754YS02001757    1.00   0.00  0.00  0.00  1.00  0.00  0.00  0.00  0.77  0.00
  YS02001757CaochengTiaoxuchi    1.00   0.00  0.00  0.00  0.97  0.03  0.00  0.00  0.75  0.00
  YS02001759YS02001757    1.00   0.00  0.00  0.00  0.98  0.02  0.00  0.00  0.60  0.00
  YS02001762YS02001759    1.00   0.00  0.00  0.00  1.00  0.00  0.00  0.00  0.03  0.00
  YS02001765YS02001762    1.00   0.00  0.00  0.00  1.00  0.00  0.00  0.00  0.70  0.00
  YS02001767YS02001765    1.00   0.00  0.00  0.00  1.00  0.00  0.00  0.00  0.00  0.00
  YS02001770YS02001767    1.00   0.00  0.00  0.00  1.00  0.00  0.00  0.00  0.00  0.00
  YS02001774YS02001770    1.00   0.00  0.13  0.00  0.71  0.00  0.16  0.00  0.02  0.00
  YS02001779YS02001774    1.00   0.00  0.00  0.00  1.00  0.00  0.00  0.00  0.74  0.00
  YS02001783YS02001784    1.00   0.00  0.16  0.00  0.84  0.00  0.00  0.00  0.55  0.00
  YS02001784YS02001785    1.00   0.00  0.00  0.00  1.00  0.00  0.00  0.00  0.15  0.00
  YS02001786YS02001788    1.00   0.00  0.00  0.00  0.80  0.20  0.00  0.00  0.00  0.00
  YS02001788YS02001790    1.00   0.00  0.00  0.00  0.21  0.79  0.00  0.00  0.78  0.00
  YS02001790YS02001791    1.00   0.00  0.00  0.00  0.01  0.99  0.00  0.00  0.16  0.00
  YS02001791YS02001793    1.00   0.00  0.00  0.00  0.00  1.00  0.00  0.00  0.01  0.00
  YS02001793JiankangQianchi    1.00   0.00  0.00  0.00  0.95  0.05  0.00  0.00  0.95  0.00
  YS02001882YS02001884    1.00   0.14  0.00  0.00  0.85  0.00  0.00  0.00  0.00  0.00
  YS02001884YS02001887    1.00   0.06  0.05  0.00  0.89  0.00  0.00  0.00  0.00  0.00
  YS02001887YS02001890    1.00   0.00  0.00  0.00  0.97  0.00  0.03  0.00  0.00  0.00
  YS02001890YS02001895    1.00   0.00  0.15  0.00  0.85  0.00  0.00  0.00  0.00  0.00
  YS02001895YS02001898    1.00   0.15  0.00  0.00  0.84  0.00  0.01  0.00  0.00  0.00
  YS02001898YS02001901    1.00   0.15  0.00  0.00  0.85  0.00  0.00  0.00  0.00  0.00
  YS02001901YS02001904    1.00   0.15  0.00  0.00  0.85  0.00  0.00  0.00  0.00  0.00
  YS02001904YS02001907    1.00   0.00  0.15  0.00  0.85  0.00  0.00  0.00  0.00  0.00
  YS02001907YS02006553    1.00   0.00  0.02  0.00  0.98  0.00  0.00  0.00  0.00  0.00
  YS02001910YS02001907    1.00   0.00  0.00  0.00  0.97  0.00  0.00  0.03  0.12  0.00
  YS02001915YS02001910    1.00   0.00  0.00  0.00  0.97  0.03  0.00  0.00  0.13  0.00
  YS02001918YS02001915    1.00   0.00  0.01  0.00  0.98  0.02  0.00  0.00  0.70  0.00
  YS02001920YS02001918    1.00   0.00  0.01  0.00  0.99  0.00  0.00  0.00  0.00  0.00
  YS02001923YS02001920    1.00   0.00  0.00  0.00  1.00  0.00  0.00  0.00  0.89  0.00
  YS02001926YS02001923    1.00   0.00  0.07  0.00  0.09  0.00  0.83  0.00  0.00  0.00
  YS02001929YS02001926    1.00   0.00  0.13  0.00  0.87  0.00  0.00  0.00  0.79  0.00
  YS02006553YS02006556    1.00   0.01  0.00  0.00  0.99  0.00  0.00  0.00  0.03  0.00
  YS02006556YS02006558    1.00   0.00  0.00  0.00  1.00  0.00  0.00  0.00  0.00  0.00
  YS02006558YS02006561    1.00   0.16  0.00  0.00  0.09  0.75  0.00  0.00  0.17  0.00
  YS02006561YS02001783    1.00   0.16  0.00  0.00  0.12  0.71  0.00  0.00  0.65  0.00
  YS02163301YS02001633    1.00   0.00  0.14  0.00  0.86  0.00  0.00  0.00  0.00  0.00
  YS02163601YS02164001    1.00   0.00  0.08  0.00  0.92  0.00  0.00  0.00  0.00  0.00
  YS02164001YS02001641    1.00   0.01  0.07  0.00  0.92  0.00  0.00  0.00  0.05  0.00
  
  
  *************************
  Conduit Surcharge Summary
  *************************
  
  ----------------------------------------------------------------------------
                                                           Hours        Hours 
                         --------- Hours Full --------   Above Full   Capacity
  Conduit                Both Ends  Upstream  Dnstream   Normal Flow   Limited
  ----------------------------------------------------------------------------
  WS02003072WS02003073        0.01      0.01      0.01      1.25         0.01
  WS02004404WS02004405        0.01      0.01      0.01      2.66         0.01
  WS02004405WS02004406        0.01      0.01      0.01      0.56         0.01
  WS02006109WS02006110        0.69      0.69      2.17      0.80         0.01
  WS02006110WS02006113        0.01      0.01      2.12      0.01         0.01
  WS02006111WS02006112        0.01      0.01      2.38      0.01         0.01
  WS02006112WS02006115        0.01      0.01      0.69      0.01         0.01
  WS02006228WS02006109        2.06      2.18      2.06      2.48         2.06
  WS02006229WS02006228        2.04      2.09      2.04      2.41         2.04
  WS02006230WS02006229        2.31      2.38      2.31      3.18         2.31
  WS02006231WS02006230        0.70      0.70      0.88      2.96         0.01
  WS02006232WS02006231        0.83      0.83      2.20      0.89         0.01
  WS02006234WS02006232        1.97      1.97      2.20      0.87         0.86
  WS02006235WS02006234        1.15      1.16      2.05      2.85         0.01
  WS02006238WS02006235        2.09      2.09      2.20      0.01         0.01
  WS02006239WS02006238        2.09      2.12      2.13      2.12         1.86
  WS02006240WS02006239        2.02      2.05      2.02      2.10         1.74
  WS02006242WS02006240        2.04      2.04      2.15      2.27         0.01
  WS02006243WS02006242        2.07      2.07      2.12      0.01         0.04
  WS02006245WS02006243        2.04      2.05      2.06      1.32         1.37
  WS02006247WS02006245        2.03      2.06      2.03      2.64         2.02
  WS02006248WS02006247        2.02      2.02      2.05      0.01         0.04
  WS02006249WS02006248        2.00      2.00      2.02      2.61         0.01
  WS02006251WS02006249        2.02      2.02      2.02      2.13         1.94
  WS02006252WS02006251        2.20      2.20      2.23      2.20         0.01
  WS02006256WS02006235        2.88      2.91      7.00      1.38         0.01
  YS02001580YS02001583        0.97      0.97      1.05      0.01         0.01
  YS02001583YS02001586        0.98      0.98      1.16      0.01         0.01
  YS02001586YS02001590        1.16      1.16      1.25      0.01         0.01
  YS02001590YS02001593        1.25      1.25      1.27      1.33         0.01
  YS02001593YS02001596        1.26      1.26      1.37      0.01         0.01
  YS02001596YS02001600        1.43      1.43      1.55      0.01         0.01
  YS02001600YS02001601        1.60      1.60      1.78      0.01         0.01
  YS02001601YS02001602        1.71      1.71      1.81      1.56         0.01
  YS02001602YS02001605        1.67      1.67      1.71      2.44         0.01
  YS02001605YS02001607        1.65      1.67      1.65      1.75         1.65
  YS02001607YS02001610        1.25      1.25      1.28      0.01         0.01
  YS02001610YS02001613        1.24      1.24      1.28      0.01         0.01
  YS02001613YS02001616        1.20      1.20      1.24      0.01         0.01
  YS02001616YS02001619        1.18      1.18      1.20      0.17         0.15
  YS02001619YS02001622        1.18      1.18      1.18      1.22         1.11
  YS02001622YS02001625        1.18      1.18      1.39      0.01         0.01
  YS02001625YS02001629        1.12      1.12      1.39      0.01         0.01
  YS02001629YS02163301        1.39      1.39      1.40      0.02         0.15
  YS02001633YS02163601        1.42      1.42      1.46      0.35         0.34
  YS02001641YS02001644        1.36      1.38      1.36      1.82         1.34
  YS02001644YS02001647        1.12      1.12      1.36      0.04         0.01
  YS02001647YS02001649        1.12      1.12      1.29      0.01         0.01
  YS02001649YS02001757        1.29      1.29      1.37      0.05         0.05
  YS02001652YS02001649        1.08      1.08      1.29      0.01         0.01
  YS02001655YS02001652        0.76      0.76      1.04      0.01         0.01
  YS02001658YS02001655        0.42      0.42      0.76      0.01         0.01
  YS02001661YS02001658        0.17      0.17      0.42      0.01         0.01
  YS02001664YS02001661        0.01      0.01      0.22      0.01         0.01
  YS02001745YS02001748        0.01      0.01      0.32      0.01         0.01
  YS02001748YS02001751        0.37      0.37      0.56      0.01         0.01
  YS02001751YS02001754        0.56      0.56      0.92      0.01         0.01
  YS02001754YS02001757        0.99      0.99      1.37      0.01         0.01
  YS02001757CaochengTiaoxuchi        1.23      1.37      1.75      0.56         0.40
  YS02001759YS02001757        1.27      1.27      1.37      0.16         0.15
  YS02001762YS02001759        1.22      1.22      1.27      0.01         0.02
  YS02001765YS02001762        1.17      1.17      1.22      0.01         0.01
  YS02001767YS02001765        1.13      1.13      1.17      0.01         0.02
  YS02001770YS02001767        1.12      1.12      1.13      0.81         0.77
  YS02001774YS02001770        1.09      1.09      1.20      0.01         0.01
  YS02001779YS02001774        0.88      0.88      1.20      0.01         0.01
  YS02001783YS02001784        0.78      0.81      0.78      0.97         0.78
  YS02001784YS02001785        0.66      0.78      0.66      1.30         0.66
  YS02001786YS02001788        0.01      0.66      0.01      1.11         0.01
  YS02001790YS02001791        0.01      0.01      0.01      0.76         0.01
  YS02001793JiankangQianchi        0.01      0.01      6.17      0.01         0.01
  YS02001882YS02001884        0.74      0.74      0.75      0.01         0.01
  YS02001884YS02001887        0.78      0.78      0.80      0.01         0.01
  YS02001887YS02001890        0.81      0.81      0.83      0.25         0.01
  YS02001890YS02001895        0.73      0.73      0.85      0.01         0.01
  YS02001895YS02001898        0.72      0.72      0.73      0.01         0.01
  YS02001898YS02001901        0.73      0.73      0.78      0.01         0.01
  YS02001901YS02001904        0.77      0.77      0.78      0.01         0.01
  YS02001904YS02001907        0.77      0.77      1.08      0.01         0.01
  YS02001907YS02006553        1.32      1.32      1.41      0.01         0.01
  YS02001910YS02001907        0.85      0.85      1.04      0.14         0.14
  YS02001915YS02001910        0.74      0.74      0.85      0.01         0.01
  YS02001918YS02001915        0.65      0.65      0.74      0.01         0.01
  YS02001920YS02001918        0.65      0.65      0.66      0.01         0.01
  YS02001923YS02001920        0.59      0.59      0.66      0.01         0.01
  YS02001926YS02001923        0.27      0.27      0.30      0.02         0.01
  YS02001929YS02001926        0.16      0.17      0.30      0.01         0.01
  YS02006553YS02006556        0.94      0.94      1.08      0.01         0.01
  YS02006556YS02006558        1.00      1.00      1.11      0.01         0.01
  YS02006558YS02006561        0.69      0.93      0.69      1.23         0.69
  YS02006561YS02001783        0.61      0.61      0.81      0.01         0.01
  YS02163301YS02001633        1.40      1.40      1.44      0.01         0.01
  YS02163601YS02164001        1.38      1.38      1.46      0.04         0.01
  YS02164001YS02001641        1.38      1.38      1.38      0.92         0.90
  
  
  ***************
  Pumping Summary
  ***************
  
  ---------------------------------------------------------------------------------------------------------
                                                  Min       Avg       Max     Total     Power    % Time Off
                        Percent   Number of      Flow      Flow      Flow    Volume     Usage    Pump Curve
  Pump                 Utilized   Start-Ups       LPS       LPS       LPS  10^6 ltr     Kw-hr    Low   High
  ---------------------------------------------------------------------------------------------------------
  CC-R1                   29.23          24      0.00    683.00    683.00     5.750    106.42    0.0   27.5
  CC-R2                   27.34          23      0.00    683.00    683.00     5.378    100.05    0.0   26.7
  CC-S1                   32.18          16      0.00    200.00    200.00     1.854     10.36    0.0    0.0
  CC-S2                   29.80          28      0.00    200.00    200.00     1.716      9.48    0.0    0.0
  JK-R1                    7.18          17      0.00   1000.00   1000.00     2.069     21.87    0.0    0.0
  JK-R2                    6.60          19      0.00   1000.00   1000.00     1.902     18.07    0.0    0.0
  JK-S                    16.61          42      0.00    300.00    300.00     1.435     23.70    0.0    0.0
  

  Analysis begun on:  Mon Dec 30 10:19:52 2024
  Analysis ended on:  Mon Dec 30 10:19:53 2024
  Total elapsed time: 00:00:01