
  EPA STORM WATER MANAGEMENT MODEL - VERSION 5.2 (Build 5.2.4)
  PYSWMM TOOLKIT API - VERSION v1.0 (2023-11-27)
  ------------------------------------------------------------

  WARNING 04: minimum elevation drop used for Conduit WS02004404WS02004405
  WARNING 03: negative offset ignored for Link YS02001904YS02001907
  
  ****************
  Analysis Options
  ****************
  Flow Units ............... LPS
  Process Models:
    Rainfall/Runoff ........ YES
    RDII ................... NO
    Snowmelt ............... NO
    Groundwater ............ NO
    Flow Routing ........... YES
    Ponding Allowed ........ NO
    Water Quality .......... NO
  Infiltration Method ...... HORTON
  Flow Routing Method ...... DYNWAVE
  Surcharge Method ......... EXTRAN
  Starting Date ............ 08/28/2015 08:00:00
  Ending Date .............. 08/28/2015 16:00:00
  Antecedent Dry Days ...... 8.0
  Report Time Step ......... 00:01:00
  Wet Time Step ............ 00:01:00
  Dry Time Step ............ 00:01:00
  Routing Time Step ........ 30.00 sec
  Variable Time Step ....... YES
  Maximum Trials ........... 8
  Number of Threads ........ 4
  Head Tolerance ........... 0.001500 m
  
  
  **************************        Volume         Depth
  Runoff Quantity Continuity     hectare-m            mm
  **************************     ---------       -------
  Total Precipitation ......         2.707        81.619
  Evaporation Loss .........         0.000         0.000
  Infiltration Loss ........         0.105         3.172
  Surface Runoff ...........         2.570        77.468
  Final Storage ............         0.033         0.997
  Continuity Error (%) .....        -0.021
  
  
  **************************        Volume        Volume
  Flow Routing Continuity        hectare-m      10^6 ltr
  **************************     ---------     ---------
  Dry Weather Inflow .......         0.025         0.251
  Wet Weather Inflow .......         2.570        25.698
  Groundwater Inflow .......         0.000         0.000
  RDII Inflow ..............         0.000         0.000
  External Inflow ..........         0.083         0.834
  External Outflow .........         1.810        18.099
  Flooding Loss ............         0.940         9.402
  Evaporation Loss .........         0.000         0.000
  Exfiltration Loss ........         0.000         0.000
  Initial Stored Volume ....         0.243         2.431
  Final Stored Volume ......         0.181         1.808
  Continuity Error (%) .....        -0.330
  
  
  *************************
  Highest Continuity Errors
  *************************
  Node YS02001884 (4.74%)
  Node YS02001583 (-2.82%)
  Node WS02006256 (-1.81%)
  
  
  ***************************
  Time-Step Critical Elements
  ***************************
  Link WS02006252WS02006251 (33.26%)
  Link WS02006238WS02006235 (22.98%)
  Link WS02004404WS02004405 (17.05%)
  Link YS02001791YS02001793 (7.75%)
  Link WS02006235WS02006234 (4.58%)
  
  
  ********************************
  Highest Flow Instability Indexes
  ********************************
  Link WS02006113WS02006111 (36)
  Link WS02006238WS02006235 (29)
  Link WS02006252WS02006251 (20)
  Link WS02004404WS02004405 (20)
  Link WS02006111WS02006112 (19)
  
  
  *********************************
  Most Frequent Nonconverging Nodes
  *********************************
  Node CC-1 (14.74%)
  Node CC-2 (14.74%)
  Node JK-1 (14.74%)
  Node JK-2 (14.74%)
  Node WSC (14.74%)
  
  
  *************************
  Routing Time Step Summary
  *************************
  Minimum Time Step           :     0.02 sec
  Average Time Step           :     2.45 sec
  Maximum Time Step           :     6.43 sec
  % of Time in Steady State   :     0.00
  Average Iterations per Step :     3.53
  % of Steps Not Converging   :    14.74
  Time Step Frequencies       :
     30.000 - 13.228 sec      :     0.00 %
     13.228 -  5.833 sec      :    11.58 %
      5.833 -  2.572 sec      :    24.55 %
      2.572 -  1.134 sec      :    26.16 %
      1.134 -  0.500 sec      :    37.71 %
  
  
  ***************************
  Subcatchment Runoff Summary
  ***************************
  
  ------------------------------------------------------------------------------------------------------------------------------
                            Total      Total      Total      Total     Imperv       Perv      Total       Total     Peak  Runoff
                           Precip      Runon       Evap      Infil     Runoff     Runoff     Runoff      Runoff   Runoff   Coeff
  Subcatchment                 mm         mm         mm         mm         mm         mm         mm    10^6 ltr      LPS
  ------------------------------------------------------------------------------------------------------------------------------
  sub60                     81.62       0.00       0.00       1.87      70.63       7.92      78.55        1.03   722.22   0.962
  sub61                     81.62       0.00       0.00       2.73      66.62      11.15      77.77        1.43  1005.30   0.953
  sub62                     81.62       0.00       0.00       1.25      73.81       5.28      79.09        2.17  1422.87   0.969
  sub63                     81.62       0.00       0.00       5.07      56.98      18.60      75.58        1.72  1159.39   0.926
  sub64                     81.62       0.00       0.00       2.56      68.17       9.69      77.86        1.87  1176.32   0.954
  sub65                     81.62       0.00       0.00       2.21      69.76       8.40      78.15        2.15  1316.04   0.958
  sub66                     81.62       0.00       0.00       6.34      56.87      17.33      74.20        3.46  1807.35   0.909
  sub67                     81.62       0.00       0.00       1.20      73.85       5.34      79.19        1.47  1069.49   0.970
  sub68                     81.62       0.00       0.00       2.26      69.01       9.17      78.18        2.15  1458.83   0.958
  sub69                     81.62       0.00       0.00       2.06      69.27      10.19      79.45        2.94  1748.21   0.973
  sub70                     81.62       0.00       0.00       6.92      53.70      20.83      74.53        2.15  1017.95   0.913
  sub71                     81.62       0.00       0.00       1.29      73.76       5.24      79.01        2.07  1266.79   0.968
  sub72                     81.62       0.00       0.00       1.15      74.50       4.57      79.07        1.09   617.94   0.969
  
  
  ******************
  Node Depth Summary
  ******************
  
  ---------------------------------------------------------------------------------
                                 Average  Maximum  Maximum  Time of Max    Reported
                                   Depth    Depth      HGL   Occurrence   Max Depth
  Node                 Type       Meters   Meters   Meters  days hr:min      Meters
  ---------------------------------------------------------------------------------
  WS02003060           JUNCTION     0.22     0.38     5.32     0  02:42        0.38
  WS02003066           JUNCTION     0.18     0.30     5.85     0  02:41        0.30
  WS02003067           JUNCTION     0.48     0.70     6.02     0  02:41        0.70
  WS02003069           JUNCTION     0.24     0.43     5.02     0  02:42        0.43
  WS02003072           JUNCTION     0.30     0.50     4.87     0  02:40        0.50
  WS02003073           JUNCTION     0.17     0.30     4.36     0  02:41        0.30
  WS02004401           JUNCTION     0.57     0.88     6.88     0  02:54        0.88
  WS02004402           JUNCTION     0.61     0.91     6.87     0  02:54        0.91
  WS02004403           JUNCTION     0.63     0.93     6.86     0  02:53        0.92
  WS02004404           JUNCTION     0.70     1.08     6.93     0  02:53        1.01
  WS02004405           JUNCTION     0.69     0.97     6.82     0  02:53        0.97
  WS02004406           JUNCTION     0.70     0.96     6.79     0  02:29        0.96
  WS02004407           JUNCTION     0.17     0.30     6.61     0  02:29        0.30
  WS02004409           JUNCTION     0.37     0.67     6.44     0  02:40        0.67
  WS02004410           JUNCTION     0.39     0.68     6.40     0  02:40        0.68
  WS02004411           JUNCTION     0.41     0.69     6.37     0  02:40        0.69
  WS02004412           JUNCTION     0.43     0.70     6.34     0  02:38        0.70
  WS02004413           JUNCTION     0.59     0.86     6.33     0  02:41        0.86
  WS02006109           JUNCTION     0.64     1.30     7.91     0  02:17        1.30
  WS02006110           JUNCTION     0.64     1.13     7.72     0  03:01        1.05
  WS02006111           JUNCTION     0.17     0.29     7.00     0  03:36        0.29
  WS02006112           JUNCTION     0.73     1.09     6.97     0  03:02        1.08
  WS02006113           JUNCTION     0.26     0.46     7.35     0  03:36        0.46
  WS02006115           JUNCTION     0.46     0.78     6.92     0  02:55        0.78
  WS02006116           JUNCTION     0.55     0.86     6.90     0  02:54        0.86
  WS02006228           JUNCTION     0.64     1.39     8.04     0  02:17        1.39
  WS02006229           JUNCTION     0.61     1.32     8.02     0  02:17        1.32
  WS02006230           JUNCTION     0.62     1.41     8.15     0  03:00        1.15
  WS02006231           JUNCTION     0.42     1.37     8.49     0  02:40        0.88
  WS02006232           JUNCTION     0.56     1.76     8.80     0  01:55        1.16
  WS02006234           JUNCTION     0.49     1.96     9.12     0  02:40        1.37
  WS02006235           JUNCTION     0.53     2.00     9.16     0  02:40        1.57
  WS02006238           JUNCTION     0.56     2.03     9.17     0  02:40        1.64
  WS02006239           JUNCTION     0.52     1.97     9.18     0  02:40        1.72
  WS02006240           JUNCTION     0.49     1.93     9.22     0  01:55        1.69
  WS02006242           JUNCTION     0.55     1.55     8.82     0  01:55        1.55
  WS02006243           JUNCTION     0.46     1.48     8.90     0  03:36        1.48
  WS02006245           JUNCTION     0.45     1.45     8.93     0  03:36        1.45
  WS02006247           JUNCTION     0.47     1.36     8.86     0  03:36        1.36
  WS02006248           JUNCTION     0.43     1.10     8.69     0  02:07        1.10
  WS02006249           JUNCTION     0.46     1.09     8.69     0  02:07        1.09
  WS02006251           JUNCTION     0.45     1.68     9.35     0  02:07        1.13
  WS02006252           JUNCTION     0.32     1.50     9.74     0  00:00        0.71
  WS02006256           JUNCTION     1.20     2.35     9.28     0  00:00        2.35
  WSF200               JUNCTION     0.16     0.29     5.52     0  02:35        0.29
  YS02001580           JUNCTION     0.13     1.05     9.59     0  02:06        0.77
  YS02001583           JUNCTION     0.16     1.14     9.64     0  02:06        0.82
  YS02001586           JUNCTION     0.28     1.13     9.30     0  02:06        1.13
  YS02001590           JUNCTION     0.40     1.40     9.26     0  02:17        1.40
  YS02001593           JUNCTION     0.33     1.33     9.19     0  02:06        1.28
  YS02001596           JUNCTION     0.45     1.68     9.10     0  02:06        1.65
  YS02001600           JUNCTION     0.56     1.87     9.00     0  02:06        1.86
  YS02001601           JUNCTION     0.77     2.06     8.90     0  02:05        2.06
  YS02001602           JUNCTION     0.66     1.87     8.77     0  02:11        1.87
  YS02001605           JUNCTION     0.61     1.78     8.68     0  02:17        1.78
  YS02001607           JUNCTION     0.57     1.65     8.50     0  02:30        1.65
  YS02001610           JUNCTION     0.61     1.68     8.48     0  02:12        1.68
  YS02001613           JUNCTION     0.57     1.67     8.51     0  02:27        1.66
  YS02001616           JUNCTION     0.50     1.61     8.52     0  02:17        1.61
  YS02001619           JUNCTION     0.48     1.61     8.54     0  02:17        1.61
  YS02001622           JUNCTION     0.46     1.60     8.51     0  02:17        1.60
  YS02001625           JUNCTION     0.72     1.78     8.38     0  02:12        1.78
  YS02001629           JUNCTION     0.61     1.85     8.40     0  02:15        1.85
  YS02001633           JUNCTION     0.69     2.08     8.53     0  02:17        2.08
  YS02001641           JUNCTION     0.65     2.10     8.54     0  02:17        2.10
  YS02001644           JUNCTION     0.64     1.92     8.35     0  02:15        1.92
  YS02001647           JUNCTION     0.41     1.77     8.38     0  02:24        1.77
  YS02001649           JUNCTION     0.46     2.01     8.40     0  02:24        2.01
  YS02001652           JUNCTION     0.33     1.96     8.55     0  02:15        1.88
  YS02001655           JUNCTION     0.24     2.04     8.89     0  02:15        1.69
  YS02001658           JUNCTION     0.18     1.47     8.61     0  02:24        1.47
  YS02001661           JUNCTION     0.19     1.27     8.68     0  02:24        1.27
  YS02001664           JUNCTION     0.09     0.77     8.70     0  02:24        0.75
  YS02001745           JUNCTION     0.10     0.93     8.44     0  02:24        0.92
  YS02001748           JUNCTION     0.16     1.35     8.42     0  02:24        1.34
  YS02001751           JUNCTION     0.20     1.51     8.39     0  02:24        1.50
  YS02001754           JUNCTION     0.28     2.00     8.61     0  02:14        1.75
  YS02001757           JUNCTION     0.47     2.07     8.33     0  02:23        2.07
  YS02001759           JUNCTION     0.41     2.07     8.44     0  02:24        2.07
  YS02001762           JUNCTION     0.39     2.04     8.44     0  02:24        2.04
  YS02001765           JUNCTION     0.37     1.99     8.44     0  02:23        1.98
  YS02001767           JUNCTION     0.37     1.96     8.45     0  02:24        1.95
  YS02001770           JUNCTION     0.38     1.95     8.44     0  02:13        1.95
  YS02001774           JUNCTION     0.45     2.03     8.46     0  02:13        2.00
  YS02001779           JUNCTION     0.26     1.68     8.37     0  02:13        1.68
  YS02001783           JUNCTION     0.34     1.28     7.42     0  02:13        1.24
  YS02001784           JUNCTION     0.35     1.14     7.21     0  02:13        1.13
  YS02001786           JUNCTION     0.29     0.89     6.92     0  02:13        0.88
  YS02001788           JUNCTION     0.21     0.63     6.60     0  02:22        0.63
  YS02001790           JUNCTION     0.25     0.73     6.37     0  02:22        0.72
  YS02001791           JUNCTION     0.16     0.44     5.91     0  02:26        0.43
  YS02001793           JUNCTION     0.08     0.29     5.12     0  02:32        0.29
  YS02001882           JUNCTION     0.41     1.69     8.41     0  02:24        1.69
  YS02001884           JUNCTION     0.50     1.78     8.40     0  02:24        1.78
  YS02001887           JUNCTION     0.58     1.86     8.40     0  02:24        1.86
  YS02001890           JUNCTION     0.61     1.81     8.32     0  02:12        1.81
  YS02001895           JUNCTION     0.38     1.59     8.33     0  02:17        1.59
  YS02001898           JUNCTION     0.39     1.56     8.30     0  02:27        1.56
  YS02001901           JUNCTION     0.50     1.68     8.29     0  02:27        1.68
  YS02001904           JUNCTION     0.48     1.64     8.27     0  02:27        1.64
  YS02001907           JUNCTION     0.79     1.96     8.25     0  02:13        1.96
  YS02001910           JUNCTION     0.60     2.00     8.50     0  02:25        2.00
  YS02001915           JUNCTION     0.42     1.98     8.70     0  02:24        1.97
  YS02001918           JUNCTION     0.24     1.81     8.88     0  02:14        1.67
  YS02001920           JUNCTION     0.32     2.12     9.12     0  02:14        1.76
  YS02001923           JUNCTION     0.18     2.03     9.29     0  02:14        1.53
  YS02001926           JUNCTION     0.22     1.90     9.35     0  02:14        1.37
  YS02001929           JUNCTION     0.13     1.78     9.47     0  02:14        1.14
  YS02006553           JUNCTION     0.79     1.98     8.27     0  02:23        1.98
  YS02006556           JUNCTION     0.77     1.98     8.29     0  02:24        1.98
  YS02006558           JUNCTION     0.81     2.04     8.31     0  02:24        2.04
  YS02006561           JUNCTION     0.21     0.96     7.62     0  02:13        0.91
  YS02163301           JUNCTION     0.63     1.96     8.48     0  02:17        1.96
  YS02163601           JUNCTION     0.71     2.08     8.48     0  02:17        2.08
  YS02164001           JUNCTION     0.64     2.10     8.56     0  02:17        2.10
  CC-1                 OUTFALL      0.00     0.00     0.00     0  00:00        0.00
  CC-2                 OUTFALL      0.00     0.00     0.00     0  00:00        0.00
  JK-1                 OUTFALL      0.00     0.00     0.00     0  00:00        0.00
  JK-2                 OUTFALL      0.00     0.00     0.00     0  00:00        0.00
  WSC                  OUTFALL      0.17     0.30     0.97     0  02:41        0.30
  CC-storage           STORAGE      0.78     1.68     7.18     0  02:50        1.68
  JK-storage           STORAGE      1.72     4.22     5.02     0  02:35        4.20
  
  
  *******************
  Node Inflow Summary
  *******************
  
  -------------------------------------------------------------------------------------------------
                                  Maximum  Maximum                  Lateral       Total        Flow
                                  Lateral    Total  Time of Max      Inflow      Inflow     Balance
                                   Inflow   Inflow   Occurrence      Volume      Volume       Error
  Node                 Type           LPS      LPS  days hr:min    10^6 ltr    10^6 ltr     Percent
  -------------------------------------------------------------------------------------------------
  WS02003060           JUNCTION     16.53   556.55     0  02:41       0.476        4.83       0.044
  WS02003066           JUNCTION      0.00   539.86     0  02:41           0        4.36       0.029
  WS02003067           JUNCTION      0.00   539.80     0  02:41           0        4.36       0.094
  WS02003069           JUNCTION      0.32   556.77     0  02:42     0.00922        4.84       0.075
  WS02003072           JUNCTION      0.00   556.53     0  02:43           0        4.84       0.136
  WS02003073           JUNCTION      1.82   558.30     0  02:40      0.0524        4.88       0.110
  WS02004401           JUNCTION      0.00   545.09     0  02:55           0        4.45       0.225
  WS02004402           JUNCTION      0.00   548.11     0  02:54           0        4.44       0.229
  WS02004403           JUNCTION      0.00   547.08     0  02:54           0        4.43       0.221
  WS02004404           JUNCTION      0.16   564.49     0  02:28     0.00467        4.43       0.098
  WS02004405           JUNCTION      0.04   616.91     0  02:54      0.0011        4.43       0.229
  WS02004406           JUNCTION      0.00   548.14     0  02:28           0        4.42       0.465
  WS02004407           JUNCTION      0.00   541.91     0  02:29           0         4.4       0.022
  WS02004409           JUNCTION      0.00   541.16     0  02:29           0        4.39       0.054
  WS02004410           JUNCTION      0.00   540.48     0  02:29           0        4.39       0.093
  WS02004411           JUNCTION      0.00   540.29     0  02:57           0        4.39       0.121
  WS02004412           JUNCTION      0.00   540.01     0  02:40           0        4.38       0.163
  WS02004413           JUNCTION      0.00   539.99     0  02:34           0        4.38       0.296
  WS02006109           JUNCTION      1.23   570.62     0  03:36      0.0354         4.5       0.158
  WS02006110           JUNCTION      0.00   573.59     0  03:36           0        4.49       0.150
  WS02006111           JUNCTION      0.00   562.40     0  03:36           0        4.49       0.020
  WS02006112           JUNCTION      0.00   547.33     0  03:36           0        4.48       0.407
  WS02006113           JUNCTION      0.00   582.29     0  03:36           0        4.49       0.040
  WS02006115           JUNCTION      0.00   564.33     0  03:36           0        4.47       0.148
  WS02006116           JUNCTION      0.00   546.02     0  02:55           0        4.46       0.109
  WS02006228           JUNCTION      0.00   564.28     0  03:36           0        4.47       0.074
  WS02006229           JUNCTION      0.00   559.98     0  03:36           0        4.47       0.130
  WS02006230           JUNCTION     10.28   581.16     0  03:35       0.296        4.48       0.110
  WS02006231           JUNCTION      0.00   573.95     0  03:00           0        4.19       0.048
  WS02006232           JUNCTION      0.00   572.66     0  03:00           0        4.19       0.232
  WS02006234           JUNCTION      0.00   568.67     0  03:00           0        4.18      -0.342
  WS02006235           JUNCTION      0.00   561.29     0  03:00           0         4.3       0.399
  WS02006238           JUNCTION      0.00   425.14     0  03:37           0        3.19      -0.216
  WS02006239           JUNCTION      0.00   423.78     0  03:37           0        3.11      -0.178
  WS02006240           JUNCTION      0.00   420.81     0  03:37           0        3.07      -0.029
  WS02006242           JUNCTION      0.00   421.12     0  03:37           0        3.06      -0.007
  WS02006243           JUNCTION      0.00   420.72     0  03:37           0        3.04      -0.302
  WS02006245           JUNCTION      0.00   419.68     0  02:55           0        3.05       0.446
  WS02006247           JUNCTION      0.00   420.54     0  02:55           0        3.05      -0.011
  WS02006248           JUNCTION      0.00   421.29     0  02:55           0        3.05      -0.079
  WS02006249           JUNCTION      0.00   474.16     0  03:55           0        3.29       0.525
  WS02006251           JUNCTION      0.08   417.78     0  02:07     0.00222        3.29       0.054
  WS02006252           JUNCTION      0.00   400.00     0  00:00           0        3.27      -0.458
  WS02006256           JUNCTION      0.00   300.00     0  00:00           0         1.6      -1.780
  WSF200               JUNCTION      0.00   539.89     0  02:41           0        4.36       0.009
  YS02001580           JUNCTION      0.00    61.94     0  02:05           0     0.00408      -0.568
  YS02001583           JUNCTION      0.00   100.38     0  02:05           0      0.0158      -2.742
  YS02001586           JUNCTION   1017.95  1017.95     0  02:26        2.15        2.17       0.036
  YS02001590           JUNCTION      0.00   318.04     0  02:47           0        1.53      -0.034
  YS02001593           JUNCTION      0.00   318.29     0  02:17           0        1.53       0.008
  YS02001596           JUNCTION      0.00   317.96     0  02:42           0        1.53      -0.006
  YS02001600           JUNCTION      0.00   318.09     0  02:16           0        1.53       0.022
  YS02001601           JUNCTION   1748.21  2065.40     0  02:25        2.94        4.48       0.014
  YS02001602           JUNCTION      0.00   495.38     0  02:05           0        2.58       0.017
  YS02001605           JUNCTION      0.00   495.09     0  02:05           0        2.45       0.027
  YS02001607           JUNCTION      0.00   494.87     0  02:05           0        2.44       0.082
  YS02001610           JUNCTION      0.00   951.73     0  02:27           0        2.88       0.081
  YS02001613           JUNCTION      0.00   615.87     0  02:28           0        2.31       0.066
  YS02001616           JUNCTION      0.00   615.39     0  02:27           0        2.31       0.016
  YS02001619           JUNCTION   1807.35  1807.35     0  02:26        3.46        5.33      -0.003
  YS02001622           JUNCTION      0.00  1053.87     0  02:28           0        4.86      -0.002
  YS02001625           JUNCTION      0.00  1504.21     0  02:28           0         5.2       0.186
  YS02001629           JUNCTION      0.00   928.36     0  02:11           0        3.98       0.016
  YS02001633           JUNCTION   1316.24  1329.87     0  02:12        2.16        5.74       0.062
  YS02001641           JUNCTION      0.00  1330.07     0  02:12           0        5.34       0.051
  YS02001644           JUNCTION   1176.36  1860.49     0  02:25        1.87        7.21       0.047
  YS02001647           JUNCTION      0.00  1695.19     0  02:13           0        6.38       0.007
  YS02001649           JUNCTION      0.00  1953.01     0  02:12           0         8.1       0.002
  YS02001652           JUNCTION      0.00  1170.10     0  02:25           0        1.72      -0.058
  YS02001655           JUNCTION      0.15  1169.99     0  02:25     0.00443        1.72      -0.014
  YS02001658           JUNCTION      0.00  1169.45     0  02:25           0        1.72      -0.002
  YS02001661           JUNCTION      0.00  1169.36     0  02:25           0        1.72       0.017
  YS02001664           JUNCTION   1159.39  1159.39     0  02:25        1.72        1.72      -0.008
  YS02001745           JUNCTION    722.23   722.23     0  02:25        1.03        1.03       0.122
  YS02001748           JUNCTION      0.04   724.56     0  02:25      0.0013        1.03      -0.176
  YS02001751           JUNCTION      0.01   725.58     0  02:25    0.000317        1.04       0.031
  YS02001754           JUNCTION      0.26   725.69     0  02:25     0.00749        1.04      -0.120
  YS02001757           JUNCTION      0.00  3302.51     0  02:23           0        12.4       0.032
  YS02001759           JUNCTION   1005.34  1404.33     0  02:24        1.43        3.22      -0.007
  YS02001762           JUNCTION      0.00   748.82     0  02:19           0        1.79      -0.004
  YS02001765           JUNCTION      0.00   748.86     0  02:19           0        1.79       0.001
  YS02001767           JUNCTION      0.54   749.27     0  02:19      0.0154        1.79       0.011
  YS02001770           JUNCTION   1423.02  1423.02     0  02:25        2.17        2.21      -0.012
  YS02001774           JUNCTION      0.00   849.43     0  02:26           0       0.436       0.243
  YS02001779           JUNCTION      0.01   848.82     0  02:26    0.000144       0.392      -0.059
  YS02001783           JUNCTION      0.00  1168.71     0  02:24           0         4.7       0.004
  YS02001784           JUNCTION      1.06  1170.00     0  02:24      0.0305        4.73       0.010
  YS02001786           JUNCTION      0.06  1169.95     0  02:24     0.00162        4.73       0.015
  YS02001788           JUNCTION      0.07  1171.22     0  02:24     0.00204        4.73       0.007
  YS02001790           JUNCTION      0.15  1179.00     0  02:23     0.00446        4.73       0.028
  YS02001791           JUNCTION      0.00  1295.53     0  02:22           0        4.73      -0.034
  YS02001793           JUNCTION      0.00  1257.72     0  02:26           0        4.73       0.005
  YS02001882           JUNCTION      0.00    37.77     0  02:10           0      0.0133       4.447
  YS02001884           JUNCTION      0.00    35.46     0  02:09           0      0.0494       4.975
  YS02001887           JUNCTION   1069.94  1069.94     0  02:25        1.49        1.52       0.286
  YS02001890           JUNCTION      0.00  1070.31     0  02:25           0        1.48       0.344
  YS02001895           JUNCTION      0.00   519.00     0  02:27           0        1.28       0.124
  YS02001898           JUNCTION      0.00   518.69     0  02:27           0        1.28      -0.003
  YS02001901           JUNCTION      0.00   518.37     0  02:27           0        1.28       0.260
  YS02001904           JUNCTION      0.00   518.78     0  02:27           0        1.28       0.199
  YS02001907           JUNCTION      0.00  2706.76     0  02:25           0        4.57       0.394
  YS02001910           JUNCTION      0.00  1894.61     0  02:25           0        3.24       0.222
  YS02001915           JUNCTION   1266.81  1894.27     0  02:25        2.07        3.26       0.042
  YS02001918           JUNCTION      0.00   628.75     0  02:25           0         1.2       0.018
  YS02001920           JUNCTION      2.87   627.85     0  02:25      0.0827        1.19       0.086
  YS02001923           JUNCTION      0.04   622.00     0  02:25     0.00109         1.1      -0.011
  YS02001926           JUNCTION      0.05   620.56     0  02:25      0.0015        1.09       0.012
  YS02001929           JUNCTION    617.94   617.94     0  02:26        1.09        1.09      -0.019
  YS02006553           JUNCTION      0.00   803.93     0  02:40           0        2.67       0.451
  YS02006556           JUNCTION      0.00   804.18     0  02:41           0        2.68       0.297
  YS02006558           JUNCTION   1459.71  1459.71     0  02:25        2.18        4.78       0.071
  YS02006561           JUNCTION      0.00  1168.95     0  02:24           0         4.7      -0.001
  YS02163301           JUNCTION      0.00   928.77     0  02:11           0        3.98       0.042
  YS02163601           JUNCTION      0.11  1329.94     0  02:12     0.00317        5.34       0.094
  YS02164001           JUNCTION      0.00  1330.07     0  02:12           0        5.34       0.038
  CC-1                 OUTFALL       0.00   683.00     0  00:00           0        5.56       0.000
  CC-2                 OUTFALL       0.00   683.00     0  00:00           0         4.4       0.000
  JK-1                 OUTFALL       0.00  1000.00     0  00:00           0         2.2       0.000
  JK-2                 OUTFALL       0.00  1000.00     0  00:00           0        1.07       0.000
  WSC                  OUTFALL       0.00   558.22     0  02:41           0        4.88       0.000
  CC-storage           STORAGE       0.00  3301.36     0  02:24           0        14.6      -0.211
  JK-storage           STORAGE       0.00  1308.12     0  02:26           0        4.88      -0.353
  
  
  **********************
  Node Surcharge Summary
  **********************
  
  Surcharging occurs when water rises above the top of the highest conduit.
  ---------------------------------------------------------------------
                                               Max. Height   Min. Depth
                                   Hours       Above Crown    Below Rim
  Node                 Type      Surcharged         Meters       Meters
  ---------------------------------------------------------------------
  WS02004404           JUNCTION        0.07          0.081        2.699
  WS02006109           JUNCTION        1.78          0.477        1.343
  WS02006110           JUNCTION        0.79          0.220        1.630
  WS02006112           JUNCTION        0.92          0.089        1.591
  WS02006228           JUNCTION        1.76          0.563        1.637
  WS02006229           JUNCTION        1.79          0.524        1.926
  WS02006230           JUNCTION        0.80          0.329        1.241
  WS02006231           JUNCTION        0.87          0.657        0.873
  WS02006232           JUNCTION        1.86          1.058        0.422
  WS02006234           JUNCTION        1.29          1.240        0.000
  WS02006235           JUNCTION        1.79          1.290        0.000
  WS02006238           JUNCTION        1.83          1.310        0.120
  WS02006239           JUNCTION        1.80          1.229        0.061
  WS02006240           JUNCTION        1.79          1.222        0.168
  WS02006242           JUNCTION        1.87          0.820        0.000
  WS02006243           JUNCTION        1.56          0.770        0.000
  WS02006245           JUNCTION        1.54          0.739        0.111
  WS02006247           JUNCTION        1.55          0.650        0.110
  WS02006248           JUNCTION        1.52          0.380        0.000
  WS02006249           JUNCTION        1.52          0.390        0.000
  WS02006251           JUNCTION        0.88          0.646        0.534
  WS02006252           JUNCTION        1.95          1.100        0.000
  WS02006256           JUNCTION        6.53          2.050        0.000
  YS02001580           JUNCTION        0.77          0.450        0.000
  YS02001583           JUNCTION        0.78          0.500        0.000
  YS02001586           JUNCTION        0.91          0.510        0.000
  YS02001590           JUNCTION        0.99          0.750        0.000
  YS02001593           JUNCTION        0.99          0.707        0.133
  YS02001596           JUNCTION        1.11          0.952        0.118
  YS02001600           JUNCTION        1.28          1.190        0.000
  YS02001601           JUNCTION        1.65          1.440        0.000
  YS02001602           JUNCTION        1.53          1.270        0.000
  YS02001605           JUNCTION        1.47          1.180        0.000
  YS02001607           JUNCTION        0.96          0.655        0.025
  YS02001610           JUNCTION        0.99          0.680        0.000
  YS02001613           JUNCTION        0.96          0.669        0.031
  YS02001616           JUNCTION        0.91          0.610        0.000
  YS02001619           JUNCTION        0.90          0.610        0.000
  YS02001622           JUNCTION        0.90          0.603        0.017
  YS02001625           JUNCTION        1.08          0.780        0.000
  YS02001629           JUNCTION        0.82          0.470        0.000
  YS02001633           JUNCTION        1.10          1.060        0.000
  YS02001641           JUNCTION        1.03          1.099        0.001
  YS02001644           JUNCTION        0.99          0.920        0.000
  YS02001647           JUNCTION        0.74          0.772        0.128
  YS02001649           JUNCTION        0.85          1.011        0.039
  YS02001652           JUNCTION        0.65          0.927        0.203
  YS02001655           JUNCTION        0.49          1.042        0.158
  YS02001658           JUNCTION        0.30          0.469        0.831
  YS02001661           JUNCTION        0.10          0.202        1.188
  YS02001748           JUNCTION        0.23          0.267        0.923
  YS02001751           JUNCTION        0.37          0.513        0.687
  YS02001754           JUNCTION        0.55          0.949        0.201
  YS02001757           JUNCTION        0.90          1.068        0.142
  YS02001759           JUNCTION        0.82          1.073        0.137
  YS02001762           JUNCTION        0.79          1.044        0.106
  YS02001765           JUNCTION        0.74          0.991        0.109
  YS02001767           JUNCTION        0.71          0.956        0.074
  YS02001770           JUNCTION        0.68          0.920        0.000
  YS02001774           JUNCTION        0.77          1.034        0.016
  YS02001779           JUNCTION        0.54          0.680        0.000
  YS02001783           JUNCTION        0.65          0.476        1.124
  YS02001784           JUNCTION        0.63          0.339        1.151
  YS02001786           JUNCTION        0.50          0.093        1.337
  YS02001882           JUNCTION        0.59          0.689        0.141
  YS02001884           JUNCTION        0.60          0.725        0.145
  YS02001887           JUNCTION        0.64          0.814        0.136
  YS02001890           JUNCTION        0.66          0.760        0.000
  YS02001895           JUNCTION        0.58          0.587        0.163
  YS02001898           JUNCTION        0.57          0.534        0.206
  YS02001901           JUNCTION        0.63          0.680        0.190
  YS02001904           JUNCTION        0.61          0.642        0.208
  YS02001907           JUNCTION        0.96          0.950        0.000
  YS02001910           JUNCTION        0.69          0.997        0.103
  YS02001915           JUNCTION        0.59          0.980        0.020
  YS02001918           JUNCTION        0.49          0.810        0.000
  YS02001920           JUNCTION        0.51          1.115        0.025
  YS02001923           JUNCTION        0.17          0.820        0.000
  YS02001926           JUNCTION        0.20          0.900        0.000
  YS02001929           JUNCTION        0.07          0.780        0.000
  YS02006553           JUNCTION        0.98          0.983        0.207
  YS02006556           JUNCTION        0.81          0.937        0.413
  YS02006558           JUNCTION        0.78          0.941        0.459
  YS02006561           JUNCTION        0.45          0.160        0.990
  YS02163301           JUNCTION        1.08          0.964        0.066
  YS02163601           JUNCTION        1.14          1.080        0.000
  YS02164001           JUNCTION        1.04          1.100        0.000
  
  
  *********************
  Node Flooding Summary
  *********************
  
  Flooding refers to all water that overflows a node, whether it ponds or not.
  --------------------------------------------------------------------------
                                                             Total   Maximum
                                 Maximum   Time of Max       Flood    Ponded
                        Hours       Rate    Occurrence      Volume     Depth
  Node                 Flooded       LPS   days hr:min    10^6 ltr    Meters
  --------------------------------------------------------------------------
  WS02006234              0.01    118.96      0  02:40       0.000     0.000
  WS02006235              0.01     21.33      0  02:40       0.000     0.000
  WS02006242              0.01     58.98      0  01:55       0.000     0.000
  WS02006243              0.01      1.10      0  03:36       0.000     0.000
  WS02006248              0.01     39.55      0  02:07       0.000     0.000
  WS02006249              0.88    145.00      0  02:07       0.219     0.000
  WS02006252              0.01    245.63      0  00:00       0.000     0.000
  WS02006256              1.47    293.19      0  00:00       0.481     0.000
  YS02001580              0.01     53.57      0  02:06       0.000     0.000
  YS02001583              0.01     44.02      0  02:06       0.000     0.000
  YS02001586              0.61    700.07      0  02:26       0.619     0.000
  YS02001600              0.01      0.37      0  02:06       0.000     0.000
  YS02001601              0.83   1667.42      0  02:25       1.893     0.000
  YS02001602              0.66     62.12      0  02:27       0.136     0.000
  YS02001605              0.01      0.39      0  02:17       0.000     0.000
  YS02001610              0.60    951.49      0  02:28       1.017     0.000
  YS02001616              0.02      2.28      0  02:25       0.000     0.000
  YS02001619              0.08    148.90      0  02:26       0.026     0.000
  YS02001625              0.55   1503.94      0  02:28       1.605     0.000
  YS02001629              0.20    225.24      0  02:25       0.060     0.000
  YS02001633              0.01      0.89      0  02:17       0.000     0.000
  YS02001644              0.27   1860.44      0  02:25       0.817     0.000
  YS02001770              0.06    191.88      0  02:25       0.021     0.000
  YS02001779              0.23    848.61      0  02:26       0.374     0.000
  YS02001890              0.23    553.30      0  02:25       0.195     0.000
  YS02001907              0.43   2706.38      0  02:25       1.941     0.000
  YS02001918              0.01     57.02      0  02:14       0.000     0.000
  YS02001923              0.01     71.06      0  02:14       0.000     0.000
  YS02001926              0.01     18.76      0  02:14       0.000     0.000
  YS02001929              0.01    109.50      0  02:14       0.000     0.000
  YS02163601              0.01      2.08      0  02:17       0.000     0.000
  YS02164001              0.01      3.25      0  02:17       0.000     0.000
  
  
  **********************
  Storage Volume Summary
  **********************
  
  ------------------------------------------------------------------------------------------------
                         Average    Avg   Evap  Exfil     Maximum    Max    Time of Max    Maximum
                          Volume   Pcnt   Pcnt   Pcnt      Volume   Pcnt     Occurrence    Outflow
  Storage Unit           1000 m³   Full   Loss   Loss     1000 m³   Full    days hr:min        LPS
  ------------------------------------------------------------------------------------------------
  CC-storage               2.185   34.1    0.0    0.0       4.681   73.0       0  02:50    1783.53
  JK-storage               0.086   29.6    0.0    0.0       0.212   72.7       0  02:35    2300.00
  
  
  ***********************
  Outfall Loading Summary
  ***********************
  
  -----------------------------------------------------------
                         Flow       Avg       Max       Total
                         Freq      Flow      Flow      Volume
  Outfall Node           Pcnt       LPS       LPS    10^6 ltr
  -----------------------------------------------------------
  CC-1                  44.62    683.00    683.00       5.558
  CC-2                  38.57    683.00    683.00       4.399
  JK-1                  13.50   1000.00   1000.00       2.198
  JK-2                   5.00   1000.00   1000.00       1.068
  WSC                   99.95    232.88    558.22       4.877
  -----------------------------------------------------------
  System                40.33   3598.88   3923.71      18.099
  
  
  ********************
  Link Flow Summary
  ********************
  
  -----------------------------------------------------------------------------
                                 Maximum  Time of Max   Maximum    Max/    Max/
                                  |Flow|   Occurrence   |Veloc|    Full    Full
  Link                 Type          LPS  days hr:min     m/sec    Flow   Depth
  -----------------------------------------------------------------------------
  1                    CONDUIT    558.22     0  02:41      2.83    0.19    0.30
  WS02003060WS02003069 CONDUIT    556.45     0  02:42      1.64    0.22    0.34
  WS02003066WSF200     CONDUIT    539.89     0  02:41      2.86    0.09    0.22
  WS02003067WS02003066 CONDUIT    539.86     0  02:41      1.21    0.17    0.42
  WS02003069WS02003072 CONDUIT    556.53     0  02:43      1.37    0.27    0.39
  WS02003072WS02003073 CONDUIT    556.48     0  02:40      1.44    1.20    0.37
  WS02004401WS02004402 CONDUIT    548.11     0  02:54      1.08    0.66    0.89
  WS02004402WS02004403 CONDUIT    547.08     0  02:54      1.09    0.79    0.92
  WS02004403WS02004404 CONDUIT    564.33     0  02:28      1.05    0.41    0.96
  WS02004404WS02004405 CONDUIT    616.88     0  02:54      1.24    6.04    0.98
  WS02004405WS02004406 CONDUIT    548.14     0  02:28      1.20    1.08    0.96
  WS02004406WS02004407 CONDUIT    541.91     0  02:29      1.04    0.24    0.63
  WS02004407WS02004409 CONDUIT    541.16     0  02:29      1.45    0.19    0.48
  WS02004409WS02004410 CONDUIT    540.48     0  02:29      0.96    0.70    0.68
  WS02004410WS02004411 CONDUIT    540.29     0  02:57      0.94    0.74    0.69
  WS02004411WS02004412 CONDUIT    540.01     0  02:40      0.93    0.77    0.70
  WS02004412WS02004413 CONDUIT    539.99     0  02:34      0.82    0.36    0.78
  WS02004413WS02003067 CONDUIT    539.80     0  02:41      1.11    0.23    0.59
  WS02006109WS02006110 CONDUIT    573.59     0  03:36      1.14    1.10    1.00
  WS02006110WS02006113 CONDUIT    582.29     0  03:36      1.39    0.53    0.79
  WS02006111WS02006112 CONDUIT    547.33     0  03:36      1.87    0.26    0.67
  WS02006112WS02006115 CONDUIT    564.33     0  03:36      0.80    0.33    0.88
  WS02006113WS02006111 CONDUIT    562.40     0  03:36      2.47    0.67    0.47
  WS02006115WS02006116 CONDUIT    546.02     0  02:55      1.09    0.70    0.79
  WS02006116WS02004401 CONDUIT    545.09     0  02:55      1.07    0.75    0.87
  WS02006228WS02006109 CONDUIT    569.39     0  03:36      1.13    2.49    1.00
  WS02006229WS02006228 CONDUIT    564.28     0  03:36      1.12    1.87    1.00
  WS02006230WS02006229 CONDUIT    559.98     0  03:36      1.46   12.46    1.00
  WS02006231WS02006230 CONDUIT    570.88     0  03:35      1.56    8.66    1.00
  WS02006232WS02006231 CONDUIT    573.95     0  03:00      1.49    1.20    1.00
  WS02006234WS02006232 CONDUIT    572.66     0  03:00      1.49    1.16    1.00
  WS02006235WS02006234 CONDUIT    568.67     0  03:00      1.48    6.00    1.00
  WS02006238WS02006235 CONDUIT    426.86     0  03:37      1.45    0.95    1.00
  WS02006239WS02006238 CONDUIT    425.14     0  03:37      1.10    1.36    1.00
  WS02006240WS02006239 CONDUIT    423.78     0  03:37      1.24    1.33    1.00
  WS02006242WS02006240 CONDUIT    420.81     0  03:37      1.13    1.67    1.00
  WS02006243WS02006242 CONDUIT    421.12     0  03:37      1.40    0.90    1.00
  WS02006245WS02006243 CONDUIT    420.72     0  03:37      1.45    1.24    1.00
  WS02006247WS02006245 CONDUIT    419.68     0  02:55      1.43    3.33    1.00
  WS02006248WS02006247 CONDUIT    420.54     0  02:55      1.45    0.92    1.00
  WS02006249WS02006248 CONDUIT    421.29     0  02:55      1.38    2.31    1.00
  WS02006251WS02006249 CONDUIT    474.16     0  03:55      1.99    1.37    1.00
  WS02006252WS02006251 CONDUIT    417.70     0  02:07     20.32    1.53    1.00
  WS02006256WS02006235 CONDUIT    288.91     0  00:00      4.23    3.06    1.00
  WSF200WS02003060     CONDUIT    540.02     0  02:41      2.07    0.12    0.28
  YS02001580YS02001583 CONDUIT     61.94     0  02:05      0.47    0.24    1.00
  YS02001583YS02001586 CONDUIT    100.38     0  02:05      0.42    0.15    1.00
  YS02001586YS02001590 CONDUIT    318.04     0  02:47      1.24    0.56    1.00
  YS02001590YS02001593 CONDUIT    318.29     0  02:17      1.13    2.00    1.00
  YS02001593YS02001596 CONDUIT    317.96     0  02:42      1.76    0.50    1.00
  YS02001596YS02001600 CONDUIT    318.09     0  02:16      1.29    0.62    1.00
  YS02001600YS02001601 CONDUIT    318.10     0  02:33      1.13    0.55    1.00
  YS02001601YS02001602 CONDUIT    495.38     0  02:05      1.75    1.79    1.00
  YS02001602YS02001605 CONDUIT    495.09     0  02:05      1.75   10.48    1.00
  YS02001605YS02001607 CONDUIT    494.87     0  02:05      1.75    2.71    1.00
  YS02001607YS02001610 CONDUIT    493.97     0  02:04      0.63    0.47    1.00
  YS02001610YS02001613 CONDUIT    615.73     0  02:27      0.78    0.71    1.00
  YS02001613YS02001616 CONDUIT    615.87     0  02:28      0.78    0.53    1.00
  YS02001616YS02001619 CONDUIT    615.39     0  02:27      0.78    1.07    1.00
  YS02001619YS02001622 CONDUIT   1053.87     0  02:28      1.34    1.55    1.00
  YS02001622YS02001625 CONDUIT   1053.65     0  02:27      1.34    0.56    1.00
  YS02001625YS02001629 CONDUIT    928.36     0  02:11      1.18    0.44    1.00
  YS02001629YS02163301 CONDUIT    928.77     0  02:11      1.18    1.14    1.00
  YS02001633YS02163601 CONDUIT   1329.83     0  02:12      1.69    1.40    1.00
  YS02001641YS02001644 CONDUIT   1329.77     0  02:12      1.69    4.30    1.00
  YS02001644YS02001647 CONDUIT   1695.19     0  02:13      2.18    1.00    1.00
  YS02001647YS02001649 CONDUIT   1710.31     0  02:12      2.29    0.90    1.00
  YS02001649YS02001757 CONDUIT   1951.66     0  02:12      2.48    1.18    1.00
  YS02001652YS02001649 CONDUIT   1170.03     0  02:25      1.49    0.58    1.00
  YS02001655YS02001652 CONDUIT   1170.10     0  02:25      1.49    0.57    1.00
  YS02001658YS02001655 CONDUIT   1169.84     0  02:25      1.80    0.50    1.00
  YS02001661YS02001658 CONDUIT   1169.45     0  02:25      2.21    0.46    1.00
  YS02001664YS02001661 CONDUIT   1169.36     0  02:25      2.18    0.37    0.89
  YS02001745YS02001748 CONDUIT    724.51     0  02:25      2.05    0.28    0.96
  YS02001748YS02001751 CONDUIT    725.57     0  02:25      1.60    0.37    1.00
  YS02001751YS02001754 CONDUIT    725.43     0  02:25      1.37    0.35    1.00
  YS02001754YS02001757 CONDUIT    726.02     0  02:25      0.92    0.29    1.00
  YS02001757CaochengTiaoxuchi CONDUIT   3301.36     0  02:24      4.20    1.43    1.00
  YS02001759YS02001757 CONDUIT   1404.40     0  02:24      1.79    1.00    1.00
  YS02001762YS02001759 CONDUIT    749.29     0  02:19      0.95    0.86    1.00
  YS02001765YS02001762 CONDUIT    748.82     0  02:19      0.95    0.70    1.00
  YS02001767YS02001765 CONDUIT    748.86     0  02:19      0.95    0.94    1.00
  YS02001770YS02001767 CONDUIT    748.73     0  02:19      0.95    2.97    1.00
  YS02001774YS02001770 CONDUIT    849.43     0  02:26      1.08    0.54    1.00
  YS02001779YS02001774 CONDUIT    848.81     0  02:26      1.08    0.43    1.00
  YS02001783YS02001784 CONDUIT   1168.94     0  02:24      2.33    1.61    1.00
  YS02001784YS02001785 CONDUIT   1169.89     0  02:24      2.33    2.72    1.00
  YS02001786YS02001788 CONDUIT   1171.15     0  02:24      2.49    2.26    0.89
  YS02001788YS02001790 CONDUIT   1178.85     0  02:23      2.72    0.87    0.84
  YS02001790YS02001791 CONDUIT   1295.53     0  02:22      3.43    1.41    0.71
  YS02001791YS02001793 CONDUIT   1257.72     0  02:26      6.73    0.54    0.44
  YS02001793JiankangQianchi CONDUIT   1308.12     0  02:26      2.62    0.10    0.64
  YS02001882YS02001884 CONDUIT     37.77     0  02:10      0.15    0.04    1.00
  YS02001884YS02001887 CONDUIT     35.46     0  02:09      0.11    0.05    1.00
  YS02001887YS02001890 CONDUIT   1070.31     0  02:25      1.36    1.83    1.00
  YS02001890YS02001895 CONDUIT    519.00     0  02:27      0.66    0.24    1.00
  YS02001895YS02001898 CONDUIT    518.69     0  02:27      0.66    0.90    1.00
  YS02001898YS02001901 CONDUIT    518.37     0  02:27      0.66    0.33    1.00
  YS02001901YS02001904 CONDUIT    518.78     0  02:27      0.66    0.80    1.00
  YS02001904YS02001907 CONDUIT    520.80     0  02:27      0.66    0.18    1.00
  YS02001907YS02006553 CONDUIT    803.93     0  02:40      0.89    0.95    1.00
  YS02001910YS02001907 CONDUIT   1895.18     0  02:25      2.41    1.07    1.00
  YS02001915YS02001910 CONDUIT   1894.61     0  02:25      2.41    0.94    1.00
  YS02001918YS02001915 CONDUIT    630.02     0  02:25      0.80    0.35    1.00
  YS02001920YS02001918 CONDUIT    628.75     0  02:25      0.80    0.61    1.00
  YS02001923YS02001920 CONDUIT    624.98     0  02:25      0.80    0.28    1.00
  YS02001926YS02001923 CONDUIT    621.97     0  02:25      0.94    0.89    1.00
  YS02001929YS02001926 CONDUIT    620.51     0  02:25      1.06    0.29    1.00
  YS02006553YS02006556 CONDUIT    804.18     0  02:41      1.02    0.69    1.00
  YS02006556YS02006558 CONDUIT    804.96     0  02:41      1.02    0.64    1.00
  YS02006558YS02006561 CONDUIT   1168.95     0  02:24      4.13    2.58    1.00
  YS02006561YS02001783 CONDUIT   1168.71     0  02:24      2.33    0.61    1.00
  YS02163301YS02001633 CONDUIT    928.70     0  02:11      1.18    0.87    1.00
  YS02163601YS02164001 CONDUIT   1330.07     0  02:12      1.69    1.18    1.00
  YS02164001YS02001641 CONDUIT   1330.07     0  02:12      1.69    1.82    1.00
  CC-R1                PUMP       683.00     0  00:00              1.00
  CC-R2                PUMP       683.00     0  00:00              1.00
  CC-S1                PUMP       200.00     0  00:00              1.00
  CC-S2                PUMP       200.00     0  00:00              1.00
  JK-R1                PUMP      1000.00     0  00:00              1.00
  JK-R2                PUMP      1000.00     0  00:00              1.00
  JK-S                 PUMP       300.00     0  00:00              1.00
  
  
  ***************************
  Flow Classification Summary
  ***************************
  
  -------------------------------------------------------------------------------------
                      Adjusted    ---------- Fraction of Time in Flow Class ---------- 
                       /Actual         Up    Down  Sub   Sup   Up    Down  Norm  Inlet 
  Conduit               Length    Dry  Dry   Dry   Crit  Crit  Crit  Crit  Ltd   Ctrl  
  -------------------------------------------------------------------------------------
  1                       1.00   0.00  0.00  0.00  0.00  1.00  0.00  0.00  0.34  0.00
  WS02003060WS02003069    1.00   0.00  0.00  0.00  0.97  0.03  0.00  0.00  0.70  0.00
  WS02003066WSF200        1.00   0.08  0.00  0.00  0.00  0.92  0.00  0.00  0.80  0.00
  WS02003067WS02003066    1.00   0.07  0.01  0.00  0.93  0.00  0.00  0.00  0.00  0.00
  WS02003069WS02003072    1.00   0.00  0.00  0.00  0.99  0.01  0.00  0.00  0.75  0.00
  WS02003072WS02003073    1.00   0.00  0.00  0.00  0.00  0.00  0.00  1.00  0.00  0.00
  WS02004401WS02004402    1.00   0.02  0.00  0.00  0.98  0.00  0.00  0.00  0.00  0.00
  WS02004402WS02004403    1.00   0.02  0.00  0.00  0.97  0.00  0.00  0.00  0.00  0.00
  WS02004403WS02004404    1.00   0.00  0.03  0.00  0.97  0.00  0.00  0.00  0.00  0.00
  WS02004404WS02004405    1.00   0.00  0.00  0.00  1.00  0.00  0.00  0.00  0.01  0.00
  WS02004405WS02004406    1.00   0.00  0.00  0.00  1.00  0.00  0.00  0.00  0.00  0.00
  WS02004406WS02004407    1.00   0.00  0.04  0.00  0.96  0.00  0.00  0.00  0.00  0.00
  WS02004407WS02004409    1.00   0.04  0.00  0.00  0.95  0.01  0.00  0.00  0.96  0.00
  WS02004409WS02004410    1.00   0.04  0.00  0.00  0.96  0.00  0.00  0.00  0.00  0.00
  WS02004410WS02004411    1.00   0.04  0.00  0.00  0.96  0.00  0.00  0.00  0.00  0.00
  WS02004411WS02004412    1.00   0.04  0.00  0.00  0.96  0.00  0.00  0.00  0.00  0.00
  WS02004412WS02004413    1.00   0.04  0.00  0.00  0.95  0.00  0.00  0.00  0.01  0.00
  WS02004413WS02003067    1.00   0.05  0.02  0.00  0.00  0.00  0.93  0.00  0.00  0.00
  WS02006109WS02006110    1.00   0.00  0.01  0.00  0.98  0.00  0.01  0.00  0.00  0.00
  WS02006110WS02006113    1.00   0.01  0.01  0.00  0.98  0.00  0.00  0.00  0.00  0.00
  WS02006111WS02006112    1.00   0.02  0.00  0.00  0.98  0.00  0.00  0.00  0.98  0.00
  WS02006112WS02006115    1.00   0.02  0.00  0.00  0.97  0.00  0.00  0.00  0.00  0.00
  WS02006113WS02006111    1.00   0.02  0.00  0.00  0.00  0.98  0.00  0.00  0.12  0.00
  WS02006115WS02006116    1.00   0.02  0.00  0.00  0.97  0.00  0.00  0.01  0.00  0.00
  WS02006116WS02004401    1.00   0.02  0.00  0.00  0.98  0.00  0.00  0.00  0.00  0.00
  WS02006228WS02006109    1.00   0.00  0.00  0.00  1.00  0.00  0.00  0.00  0.01  0.00
  WS02006229WS02006228    1.00   0.00  0.00  0.00  0.99  0.00  0.00  0.01  0.00  0.00
  WS02006230WS02006229    1.00   0.00  0.00  0.00  0.99  0.00  0.00  0.01  0.04  0.00
  WS02006231WS02006230    1.00   0.00  0.00  0.00  0.25  0.00  0.75  0.00  0.00  0.00
  WS02006232WS02006231    1.00   0.00  0.00  0.00  0.99  0.00  0.01  0.00  0.00  0.00
  WS02006234WS02006232    1.00   0.00  0.00  0.00  1.00  0.00  0.00  0.00  0.07  0.00
  WS02006235WS02006234    1.00   0.00  0.00  0.00  0.87  0.00  0.13  0.00  0.00  0.00
  WS02006238WS02006235    1.00   0.00  0.00  0.00  1.00  0.00  0.00  0.00  0.00  0.00
  WS02006239WS02006238    1.00   0.00  0.00  0.00  1.00  0.00  0.00  0.00  0.18  0.00
  WS02006240WS02006239    1.00   0.00  0.00  0.00  0.66  0.00  0.00  0.34  0.04  0.00
  WS02006242WS02006240    1.00   0.00  0.00  0.00  0.99  0.00  0.01  0.00  0.00  0.00
  WS02006243WS02006242    1.00   0.00  0.00  0.00  0.99  0.00  0.00  0.00  0.62  0.00
  WS02006245WS02006243    1.00   0.00  0.00  0.00  0.77  0.00  0.00  0.23  0.01  0.00
  WS02006247WS02006245    1.00   0.00  0.00  0.00  0.96  0.00  0.00  0.04  0.00  0.00
  WS02006248WS02006247    1.00   0.00  0.00  0.00  0.98  0.00  0.00  0.02  0.56  0.00
  WS02006249WS02006248    1.00   0.00  0.00  0.00  0.43  0.00  0.57  0.00  0.00  0.00
  WS02006251WS02006249    1.00   0.00  0.00  0.00  0.99  0.01  0.00  0.00  0.59  0.00
  WS02006252WS02006251    1.00   0.01  0.42  0.00  0.11  0.00  0.46  0.00  0.00  0.00
  WS02006256WS02006235    1.00   0.00  0.00  0.00  0.98  0.02  0.00  0.00  0.00  0.00
  WSF200WS02003060        1.00   0.00  0.08  0.00  0.48  0.44  0.00  0.00  0.61  0.00
  YS02001580YS02001583    1.00   0.26  0.53  0.00  0.22  0.00  0.00  0.00  0.62  0.00
  YS02001583YS02001586    1.00   0.40  0.33  0.00  0.27  0.00  0.00  0.00  0.62  0.00
  YS02001586YS02001590    1.00   0.13  0.00  0.00  0.47  0.04  0.00  0.37  0.38  0.00
  YS02001590YS02001593    1.00   0.13  0.01  0.00  0.14  0.00  0.73  0.00  0.00  0.00
  YS02001593YS02001596    1.00   0.13  0.00  0.00  0.16  0.01  0.00  0.70  0.02  0.00
  YS02001596YS02001600    1.00   0.13  0.00  0.00  0.23  0.01  0.00  0.63  0.05  0.00
  YS02001600YS02001601    1.00   0.13  0.01  0.00  0.86  0.00  0.00  0.00  0.58  0.00
  YS02001601YS02001602    1.00   0.13  0.01  0.00  0.87  0.00  0.00  0.00  0.00  0.00
  YS02001602YS02001605    1.00   0.13  0.00  0.00  0.87  0.00  0.00  0.00  0.00  0.00
  YS02001605YS02001607    1.00   0.13  0.00  0.00  0.87  0.00  0.00  0.00  0.00  0.00
  YS02001607YS02001610    1.00   0.13  0.01  0.00  0.86  0.00  0.00  0.00  0.01  0.00
  YS02001610YS02001613    1.00   0.13  0.00  0.00  0.87  0.00  0.00  0.00  0.00  0.00
  YS02001613YS02001616    1.00   0.13  0.00  0.00  0.87  0.00  0.00  0.00  0.00  0.00
  YS02001616YS02001619    1.00   0.13  0.00  0.00  0.87  0.00  0.00  0.00  0.00  0.00
  YS02001619YS02001622    1.00   0.13  0.00  0.00  0.87  0.00  0.00  0.00  0.26  0.00
  YS02001622YS02001625    1.00   0.13  0.00  0.00  0.87  0.00  0.00  0.00  0.03  0.00
  YS02001625YS02001629    1.00   0.13  0.04  0.00  0.19  0.00  0.64  0.00  0.00  0.00
  YS02001629YS02163301    1.00   0.15  0.01  0.00  0.84  0.00  0.00  0.00  0.00  0.00
  YS02001633YS02163601    1.00   0.00  0.01  0.00  0.99  0.00  0.00  0.00  0.14  0.00
  YS02001641YS02001644    1.00   0.00  0.01  0.00  0.99  0.00  0.00  0.00  0.00  0.00
  YS02001644YS02001647    1.00   0.00  0.16  0.00  0.84  0.00  0.00  0.00  0.00  0.00
  YS02001647YS02001649    1.00   0.00  0.16  0.00  0.54  0.30  0.00  0.00  0.54  0.00
  YS02001649YS02001757    1.00   0.00  0.00  0.00  0.68  0.32  0.00  0.00  0.42  0.00
  YS02001652YS02001649    1.00   0.00  0.00  0.00  0.97  0.03  0.00  0.00  0.71  0.00
  YS02001655YS02001652    1.00   0.00  0.00  0.00  0.21  0.01  0.00  0.77  0.06  0.00
  YS02001658YS02001655    1.00   0.00  0.14  0.00  0.67  0.20  0.00  0.00  0.68  0.00
  YS02001661YS02001658    1.00   0.14  0.00  0.00  0.50  0.36  0.00  0.00  0.68  0.00
  YS02001664YS02001661    1.00   0.13  0.00  0.00  0.75  0.12  0.00  0.00  0.85  0.00
  YS02001745YS02001748    1.00   0.00  0.00  0.00  0.11  0.00  0.00  0.89  0.04  0.00
  YS02001748YS02001751    1.00   0.00  0.00  0.00  0.82  0.18  0.00  0.00  0.73  0.00
  YS02001751YS02001754    1.00   0.00  0.00  0.00  0.18  0.01  0.00  0.81  0.04  0.00
  YS02001754YS02001757    1.00   0.00  0.00  0.00  1.00  0.00  0.00  0.00  0.80  0.00
  YS02001757CaochengTiaoxuchi    1.00   0.00  0.00  0.00  0.93  0.07  0.00  0.00  0.74  0.00
  YS02001759YS02001757    1.00   0.00  0.00  0.00  0.99  0.01  0.00  0.00  0.58  0.00
  YS02001762YS02001759    1.00   0.00  0.00  0.00  1.00  0.00  0.00  0.00  0.05  0.00
  YS02001765YS02001762    1.00   0.00  0.00  0.00  1.00  0.00  0.00  0.00  0.69  0.00
  YS02001767YS02001765    1.00   0.00  0.00  0.00  1.00  0.00  0.00  0.00  0.00  0.00
  YS02001770YS02001767    1.00   0.00  0.00  0.00  1.00  0.00  0.00  0.00  0.00  0.00
  YS02001774YS02001770    1.00   0.00  0.13  0.00  0.71  0.00  0.16  0.00  0.02  0.00
  YS02001779YS02001774    1.00   0.00  0.00  0.00  1.00  0.00  0.00  0.00  0.73  0.00
  YS02001783YS02001784    1.00   0.00  0.17  0.00  0.83  0.00  0.00  0.00  0.54  0.00
  YS02001784YS02001785    1.00   0.00  0.00  0.00  1.00  0.00  0.00  0.00  0.16  0.00
  YS02001786YS02001788    1.00   0.00  0.00  0.00  0.79  0.21  0.00  0.00  0.00  0.00
  YS02001788YS02001790    1.00   0.00  0.00  0.00  0.21  0.79  0.00  0.00  0.78  0.00
  YS02001790YS02001791    1.00   0.00  0.00  0.00  0.01  0.99  0.00  0.00  0.16  0.00
  YS02001791YS02001793    1.00   0.00  0.00  0.00  0.00  1.00  0.00  0.00  0.01  0.00
  YS02001793JiankangQianchi    1.00   0.00  0.00  0.00  0.97  0.03  0.00  0.00  0.96  0.00
  YS02001882YS02001884    1.00   0.15  0.01  0.00  0.85  0.00  0.00  0.00  0.00  0.00
  YS02001884YS02001887    1.00   0.06  0.05  0.00  0.89  0.00  0.00  0.00  0.00  0.00
  YS02001887YS02001890    1.00   0.00  0.00  0.00  0.97  0.00  0.03  0.00  0.00  0.00
  YS02001890YS02001895    1.00   0.00  0.15  0.00  0.84  0.00  0.00  0.00  0.00  0.00
  YS02001895YS02001898    1.00   0.16  0.00  0.00  0.83  0.00  0.02  0.00  0.00  0.00
  YS02001898YS02001901    1.00   0.16  0.00  0.00  0.84  0.00  0.00  0.00  0.01  0.00
  YS02001901YS02001904    1.00   0.16  0.00  0.00  0.84  0.00  0.00  0.00  0.00  0.00
  YS02001904YS02001907    1.00   0.00  0.16  0.00  0.84  0.00  0.00  0.00  0.00  0.00
  YS02001907YS02006553    1.00   0.00  0.02  0.00  0.98  0.00  0.00  0.00  0.00  0.00
  YS02001910YS02001907    1.00   0.00  0.00  0.00  0.97  0.00  0.00  0.03  0.12  0.00
  YS02001915YS02001910    1.00   0.00  0.00  0.00  0.97  0.03  0.00  0.00  0.14  0.00
  YS02001918YS02001915    1.00   0.00  0.01  0.00  0.98  0.02  0.00  0.00  0.72  0.00
  YS02001920YS02001918    1.00   0.00  0.01  0.00  0.99  0.00  0.00  0.00  0.00  0.00
  YS02001923YS02001920    1.00   0.00  0.00  0.00  1.00  0.00  0.00  0.00  0.91  0.00
  YS02001926YS02001923    1.00   0.00  0.07  0.00  0.07  0.00  0.85  0.00  0.00  0.00
  YS02001929YS02001926    1.00   0.00  0.13  0.00  0.87  0.00  0.00  0.00  0.81  0.00
  YS02006553YS02006556    1.00   0.01  0.00  0.00  0.99  0.00  0.00  0.00  0.03  0.00
  YS02006556YS02006558    1.00   0.00  0.00  0.00  1.00  0.00  0.00  0.00  0.00  0.00
  YS02006558YS02006561    1.00   0.17  0.00  0.00  0.07  0.76  0.00  0.00  0.17  0.00
  YS02006561YS02001783    1.00   0.17  0.00  0.00  0.11  0.72  0.00  0.00  0.66  0.00
  YS02163301YS02001633    1.00   0.00  0.15  0.00  0.85  0.00  0.00  0.00  0.00  0.00
  YS02163601YS02164001    1.00   0.00  0.08  0.00  0.92  0.00  0.00  0.00  0.00  0.00
  YS02164001YS02001641    1.00   0.01  0.07  0.00  0.92  0.00  0.00  0.00  0.05  0.00
  
  
  *************************
  Conduit Surcharge Summary
  *************************
  
  ----------------------------------------------------------------------------
                                                           Hours        Hours 
                         --------- Hours Full --------   Above Full   Capacity
  Conduit                Both Ends  Upstream  Dnstream   Normal Flow   Limited
  ----------------------------------------------------------------------------
  WS02003072WS02003073        0.01      0.01      0.01      1.14         0.01
  WS02004403WS02004404        0.01      0.01      0.04      0.01         0.01
  WS02004404WS02004405        0.01      0.04      0.01      2.75         0.01
  WS02004405WS02004406        0.01      0.01      0.01      0.78         0.01
  WS02006109WS02006110        0.78      0.78      1.86      0.85         0.01
  WS02006110WS02006113        0.01      0.01      1.83      0.01         0.01
  WS02006111WS02006112        0.01      0.01      2.18      0.01         0.01
  WS02006112WS02006115        0.01      0.01      0.92      0.01         0.01
  WS02006228WS02006109        1.78      1.85      1.78      2.34         1.78
  WS02006229WS02006228        1.76      1.79      1.76      2.09         1.76
  WS02006230WS02006229        1.95      2.05      1.95      3.21         1.95
  WS02006231WS02006230        0.80      0.80      0.90      2.94         0.01
  WS02006232WS02006231        0.87      0.87      1.86      0.91         0.01
  WS02006234WS02006232        1.74      1.75      1.86      0.89         0.87
  WS02006235WS02006234        1.29      1.29      1.79      2.86         0.01
  WS02006238WS02006235        1.81      1.81      1.86      0.01         0.01
  WS02006239WS02006238        1.83      1.85      1.83      1.73         1.38
  WS02006240WS02006239        1.79      1.82      1.80      1.72         1.23
  WS02006242WS02006240        1.79      1.79      1.92      1.92         0.01
  WS02006243WS02006242        1.58      1.58      1.87      0.01         0.02
  WS02006245WS02006243        1.53      1.55      1.56      0.94         0.90
  WS02006247WS02006245        1.54      1.56      1.54      2.52         1.53
  WS02006248WS02006247        1.53      1.53      1.55      0.01         0.02
  WS02006249WS02006248        1.52      1.52      1.52      2.47         0.01
  WS02006251WS02006249        1.52      1.52      1.52      1.84         1.47
  WS02006252WS02006251        1.91      1.91      1.95      1.92         0.01
  WS02006256WS02006235        2.86      2.89      6.45      1.52         0.01
  YS02001580YS02001583        0.77      0.77      0.83      0.01         0.01
  YS02001583YS02001586        0.78      0.78      0.91      0.01         0.01
  YS02001586YS02001590        0.91      0.91      0.99      0.01         0.01
  YS02001590YS02001593        0.99      0.99      1.01      0.99         0.01
  YS02001593YS02001596        1.00      1.00      1.11      0.01         0.01
  YS02001596YS02001600        1.17      1.17      1.28      0.01         0.01
  YS02001600YS02001601        1.34      1.34      1.65      0.01         0.01
  YS02001601YS02001602        1.53      1.53      1.69      1.29         0.01
  YS02001602YS02001605        1.47      1.47      1.53      2.53         0.01
  YS02001605YS02001607        1.42      1.47      1.42      1.61         1.42
  YS02001607YS02001610        0.96      0.96      0.99      0.01         0.01
  YS02001610YS02001613        0.96      0.96      0.99      0.01         0.01
  YS02001613YS02001616        0.91      0.91      0.96      0.01         0.01
  YS02001616YS02001619        0.90      0.90      0.91      0.07         0.09
  YS02001619YS02001622        0.90      0.90      0.90      1.01         0.88
  YS02001622YS02001625        0.90      0.90      1.08      0.01         0.01
  YS02001625YS02001629        0.82      0.82      1.08      0.01         0.01
  YS02001629YS02163301        1.08      1.08      1.08      0.28         0.26
  YS02001633YS02163601        1.10      1.10      1.14      0.45         0.43
  YS02001641YS02001644        0.99      1.03      0.99      1.73         0.98
  YS02001644YS02001647        0.74      0.74      0.99      0.01         0.01
  YS02001647YS02001649        0.74      0.74      0.85      0.01         0.01
  YS02001649YS02001757        0.84      0.85      0.90      0.19         0.10
  YS02001652YS02001649        0.68      0.68      0.85      0.01         0.01
  YS02001655YS02001652        0.49      0.49      0.65      0.01         0.01
  YS02001658YS02001655        0.30      0.30      0.49      0.01         0.01
  YS02001661YS02001658        0.10      0.10      0.30      0.01         0.01
  YS02001664YS02001661        0.01      0.01      0.14      0.01         0.01
  YS02001745YS02001748        0.01      0.01      0.23      0.01         0.01
  YS02001748YS02001751        0.27      0.27      0.37      0.01         0.01
  YS02001751YS02001754        0.37      0.37      0.55      0.01         0.01
  YS02001754YS02001757        0.59      0.59      0.90      0.01         0.01
  YS02001757CaochengTiaoxuchi        0.85      0.90      1.37      0.50         0.39
  YS02001759YS02001757        0.82      0.82      0.90      0.01         0.03
  YS02001762YS02001759        0.79      0.79      0.82      0.01         0.01
  YS02001765YS02001762        0.74      0.74      0.79      0.01         0.01
  YS02001767YS02001765        0.71      0.71      0.74      0.01         0.02
  YS02001770YS02001767        0.70      0.70      0.71      0.67         0.50
  YS02001774YS02001770        0.68      0.68      0.77      0.01         0.01
  YS02001779YS02001774        0.54      0.54      0.77      0.01         0.01
  YS02001783YS02001784        0.63      0.65      0.63      0.86         0.63
  YS02001784YS02001785        0.50      0.63      0.50      1.16         0.50
  YS02001786YS02001788        0.01      0.50      0.01      1.01         0.01
  YS02001790YS02001791        0.01      0.01      0.01      0.61         0.01
  YS02001793JiankangQianchi        0.01      0.01      6.62      0.01         0.01
  YS02001882YS02001884        0.59      0.59      0.60      0.01         0.01
  YS02001884YS02001887        0.63      0.63      0.64      0.01         0.01
  YS02001887YS02001890        0.66      0.66      0.67      0.17         0.01
  YS02001890YS02001895        0.58      0.58      0.69      0.01         0.01
  YS02001895YS02001898        0.57      0.57      0.58      0.01         0.01
  YS02001898YS02001901        0.58      0.58      0.63      0.01         0.01
  YS02001901YS02001904        0.61      0.61      0.63      0.01         0.01
  YS02001904YS02001907        0.61      0.61      0.98      0.01         0.01
  YS02001907YS02006553        1.18      1.18      1.26      0.01         0.01
  YS02001910YS02001907        0.69      0.69      0.96      0.05         0.05
  YS02001915YS02001910        0.59      0.59      0.69      0.01         0.01
  YS02001918YS02001915        0.49      0.49      0.59      0.01         0.01
  YS02001920YS02001918        0.49      0.49      0.51      0.01         0.01
  YS02001923YS02001920        0.44      0.44      0.51      0.01         0.01
  YS02001926YS02001923        0.17      0.17      0.20      0.01         0.01
  YS02001929YS02001926        0.07      0.07      0.20      0.01         0.01
  YS02006553YS02006556        0.81      0.81      0.98      0.01         0.01
  YS02006556YS02006558        0.90      0.90      1.00      0.01         0.01
  YS02006558YS02006561        0.53      0.78      0.53      1.11         0.53
  YS02006561YS02001783        0.45      0.45      0.65      0.01         0.01
  YS02163301YS02001633        1.08      1.08      1.13      0.01         0.01
  YS02163601YS02164001        1.04      1.04      1.14      0.15         0.01
  YS02164001YS02001641        1.03      1.04      1.03      0.82         0.72
  
  
  ***************
  Pumping Summary
  ***************
  
  ---------------------------------------------------------------------------------------------------------
                                                  Min       Avg       Max     Total     Power    % Time Off
                        Percent   Number of      Flow      Flow      Flow    Volume     Usage    Pump Curve
  Pump                 Utilized   Start-Ups       LPS       LPS       LPS  10^6 ltr     Kw-hr    Low   High
  ---------------------------------------------------------------------------------------------------------
  CC-R1                   28.37          29      0.00    683.00    683.00     5.580    100.87    0.0   39.7
  CC-R2                   22.46          26      0.00    683.00    683.00     4.419     80.61    0.0   35.1
  CC-S1                   30.35          21      0.00    200.00    200.00     1.748     10.45    0.0    0.0
  CC-S2                   26.65          25      0.00    200.00    200.00     1.535      9.14    0.0    0.0
  JK-R1                    7.63          18      0.00   1000.00   1000.00     2.196     22.21    0.0    0.0
  JK-R2                    3.72          14      0.00   1000.00   1000.00     1.072     10.26    0.0    0.0
  JK-S                    18.43          30      0.00    300.00    300.00     1.592     25.81    0.0    0.0
  

  Analysis begun on:  Mon Dec 30 10:18:40 2024
  Analysis ended on:  Mon Dec 30 10:18:41 2024
  Total elapsed time: 00:00:01