
  EPA STORM WATER MANAGEMENT MODEL - VERSION 5.2 (Build 5.2.4)
  PYSWMM TOOLKIT API - VERSION v1.0 (2023-11-27)
  ------------------------------------------------------------

  WARNING 04: minimum elevation drop used for Conduit WS02004404WS02004405
  WARNING 03: negative offset ignored for Link YS02001904YS02001907
  
  ****************
  Analysis Options
  ****************
  Flow Units ............... LPS
  Process Models:
    Rainfall/Runoff ........ YES
    RDII ................... NO
    Snowmelt ............... NO
    Groundwater ............ NO
    Flow Routing ........... YES
    Ponding Allowed ........ NO
    Water Quality .......... NO
  Infiltration Method ...... HORTON
  Flow Routing Method ...... DYNWAVE
  Surcharge Method ......... EXTRAN
  Starting Date ............ 08/28/2015 08:00:00
  Ending Date .............. 08/28/2015 16:00:00
  Antecedent Dry Days ...... 8.0
  Report Time Step ......... 00:01:00
  Wet Time Step ............ 00:01:00
  Dry Time Step ............ 00:01:00
  Routing Time Step ........ 30.00 sec
  Variable Time Step ....... YES
  Maximum Trials ........... 8
  Number of Threads ........ 4
  Head Tolerance ........... 0.001500 m
  
  
  **************************        Volume         Depth
  Runoff Quantity Continuity     hectare-m            mm
  **************************     ---------       -------
  Total Precipitation ......         5.618       169.381
  Evaporation Loss .........         0.000         0.000
  Infiltration Loss ........         0.112         3.371
  Surface Runoff ...........         5.475       165.055
  Final Storage ............         0.033         1.002
  Continuity Error (%) .....        -0.027
  
  
  **************************        Volume        Volume
  Flow Routing Continuity        hectare-m      10^6 ltr
  **************************     ---------     ---------
  Dry Weather Inflow .......         0.025         0.251
  Wet Weather Inflow .......         5.474        54.740
  Groundwater Inflow .......         0.000         0.000
  RDII Inflow ..............         0.000         0.000
  External Inflow ..........         0.083         0.834
  External Outflow .........         2.918        29.176
  Flooding Loss ............         2.739        27.388
  Evaporation Loss .........         0.000         0.000
  Exfiltration Loss ........         0.000         0.000
  Initial Stored Volume ....         0.243         2.431
  Final Stored Volume ......         0.182         1.825
  Continuity Error (%) .....        -0.229
  
  
  *************************
  Highest Continuity Errors
  *************************
  Node YS02001583 (-14.36%)
  Node YS02001884 (4.95%)
  Node WS02006256 (-1.56%)
  
  
  ***************************
  Time-Step Critical Elements
  ***************************
  Link YS02001791YS02001793 (25.53%)
  Link WS02006238WS02006235 (21.96%)
  Link WS02006252WS02006251 (15.45%)
  Link WS02004404WS02004405 (14.90%)
  Link WS02006235WS02006234 (9.48%)
  
  
  ********************************
  Highest Flow Instability Indexes
  ********************************
  Link YS02001602YS02001605 (44)
  Link WS02006113WS02006111 (43)
  Link YS02001605YS02001607 (41)
  Link WS02006238WS02006235 (38)
  Link YS02001607YS02001610 (38)
  
  
  *********************************
  Most Frequent Nonconverging Nodes
  *********************************
  Node CC-1 (32.09%)
  Node CC-2 (32.09%)
  Node JK-1 (32.09%)
  Node JK-2 (32.09%)
  Node WSC (32.09%)
  
  
  *************************
  Routing Time Step Summary
  *************************
  Minimum Time Step           :     0.01 sec
  Average Time Step           :     2.48 sec
  Maximum Time Step           :     6.43 sec
  % of Time in Steady State   :     0.00
  Average Iterations per Step :     4.68
  % of Steps Not Converging   :    32.09
  Time Step Frequencies       :
     30.000 - 13.228 sec      :     0.00 %
     13.228 -  5.833 sec      :     8.00 %
      5.833 -  2.572 sec      :    24.09 %
      2.572 -  1.134 sec      :    45.22 %
      1.134 -  0.500 sec      :    22.69 %
  
  
  ***************************
  Subcatchment Runoff Summary
  ***************************
  
  ------------------------------------------------------------------------------------------------------------------------------
                            Total      Total      Total      Total     Imperv       Perv      Total       Total     Peak  Runoff
                           Precip      Runon       Evap      Infil     Runoff     Runoff     Runoff      Runoff   Runoff   Coeff
  Subcatchment                 mm         mm         mm         mm         mm         mm         mm    10^6 ltr      LPS
  ------------------------------------------------------------------------------------------------------------------------------
  sub60                    169.38       0.00       0.00       1.98     147.90      18.35     166.25        2.18   424.10   0.982
  sub61                    169.38       0.00       0.00       2.89     139.50      25.91     165.41        3.04   589.69   0.977
  sub62                    169.38       0.00       0.00       1.32     154.58      12.23     166.81        4.57   853.87   0.985
  sub63                    169.38       0.00       0.00       5.39     119.33      43.74     163.06        3.70   694.41   0.963
  sub64                    169.38       0.00       0.00       2.72     142.79      22.69     165.48        3.97   722.02   0.977
  sub65                    169.38       0.00       0.00       2.35     146.13      19.67     165.80        4.56   817.55   0.979
  sub66                    169.38       0.00       0.00       6.71     119.19      42.41     161.60        7.54  1232.80   0.954
  sub67                    169.38       0.00       0.00       1.25     154.65      12.31     166.95        3.11   640.21   0.986
  sub68                    169.38       0.00       0.00       2.40     144.52      21.32     165.84        4.56   867.49   0.979
  sub69                    169.38       0.00       0.00       2.22     143.88      23.19     167.07        6.19  1091.59   0.986
  sub70                    169.38       0.00       0.00       7.40     111.63      50.20     161.82        4.68   746.10   0.955
  sub71                    169.38       0.00       0.00       1.36     154.52      12.19     166.71        4.36   783.64   0.984
  sub72                    169.38       0.00       0.00       1.22     156.13      10.64     166.77        2.29   395.64   0.985
  
  
  ******************
  Node Depth Summary
  ******************
  
  ---------------------------------------------------------------------------------
                                 Average  Maximum  Maximum  Time of Max    Reported
                                   Depth    Depth      HGL   Occurrence   Max Depth
  Node                 Type       Meters   Meters   Meters  days hr:min      Meters
  ---------------------------------------------------------------------------------
  WS02003060           JUNCTION     0.25     0.38     5.32     0  02:20        0.38
  WS02003066           JUNCTION     0.20     0.30     5.85     0  02:20        0.30
  WS02003067           JUNCTION     0.51     0.70     6.02     0  02:20        0.70
  WS02003069           JUNCTION     0.28     0.43     5.02     0  02:21        0.43
  WS02003072           JUNCTION     0.34     0.50     4.87     0  02:22        0.50
  WS02003073           JUNCTION     0.19     0.30     4.36     0  02:22        0.30
  WS02004401           JUNCTION     0.62     0.88     6.88     0  02:20        0.88
  WS02004402           JUNCTION     0.65     0.91     6.87     0  02:18        0.90
  WS02004403           JUNCTION     0.67     0.92     6.85     0  02:20        0.92
  WS02004404           JUNCTION     0.74     1.06     6.91     0  02:45        1.04
  WS02004405           JUNCTION     0.73     0.97     6.82     0  02:18        0.97
  WS02004406           JUNCTION     0.74     0.96     6.79     0  02:18        0.96
  WS02004407           JUNCTION     0.19     0.30     6.61     0  02:18        0.30
  WS02004409           JUNCTION     0.42     0.67     6.44     0  02:19        0.67
  WS02004410           JUNCTION     0.44     0.68     6.40     0  02:19        0.68
  WS02004411           JUNCTION     0.46     0.69     6.37     0  02:19        0.69
  WS02004412           JUNCTION     0.48     0.70     6.34     0  02:19        0.70
  WS02004413           JUNCTION     0.63     0.86     6.33     0  02:20        0.86
  WS02006109           JUNCTION     0.68     1.14     7.76     0  01:20        1.01
  WS02006110           JUNCTION     0.67     1.15     7.74     0  01:20        0.96
  WS02006111           JUNCTION     0.19     0.29     6.99     0  03:02        0.29
  WS02006112           JUNCTION     0.77     1.09     6.97     0  01:40        1.08
  WS02006113           JUNCTION     0.29     0.46     7.35     0  03:02        0.46
  WS02006115           JUNCTION     0.51     0.78     6.92     0  02:45        0.77
  WS02006116           JUNCTION     0.59     0.86     6.90     0  02:20        0.86
  WS02006228           JUNCTION     0.68     1.22     7.87     0  01:20        1.05
  WS02006229           JUNCTION     0.66     1.28     7.97     0  01:20        1.07
  WS02006230           JUNCTION     0.68     1.51     8.25     0  01:20        1.21
  WS02006231           JUNCTION     0.48     1.17     8.29     0  01:20        0.97
  WS02006232           JUNCTION     0.62     1.31     8.35     0  01:20        1.17
  WS02006234           JUNCTION     0.56     1.29     8.45     0  02:21        1.29
  WS02006235           JUNCTION     0.61     1.53     8.69     0  02:21        1.53
  WS02006238           JUNCTION     0.63     1.57     8.72     0  02:21        1.57
  WS02006239           JUNCTION     0.61     1.56     8.77     0  02:27        1.53
  WS02006240           JUNCTION     0.58     1.54     8.84     0  02:27        1.45
  WS02006242           JUNCTION     0.66     1.55     8.82     0  02:27        1.55
  WS02006243           JUNCTION     0.58     1.40     8.82     0  02:27        1.35
  WS02006245           JUNCTION     0.59     1.56     9.04     0  02:46        1.56
  WS02006247           JUNCTION     0.61     1.47     8.97     0  02:46        1.47
  WS02006248           JUNCTION     0.58     1.10     8.69     0  01:15        1.10
  WS02006249           JUNCTION     0.60     1.09     8.69     0  01:15        1.09
  WS02006251           JUNCTION     0.61     2.16     9.83     0  01:15        2.16
  WS02006252           JUNCTION     0.41     1.50     9.74     0  00:00        1.50
  WS02006256           JUNCTION     1.12     2.35     9.28     0  00:00        2.35
  WSF200               JUNCTION     0.18     0.29     5.53     0  02:20        0.29
  YS02001580           JUNCTION     0.29     1.05     9.59     0  01:06        0.78
  YS02001583           JUNCTION     0.33     1.14     9.64     0  01:06        0.84
  YS02001586           JUNCTION     0.47     1.13     9.30     0  01:05        1.13
  YS02001590           JUNCTION     0.61     1.40     9.26     0  01:05        1.38
  YS02001593           JUNCTION     0.54     1.46     9.32     0  01:05        1.32
  YS02001596           JUNCTION     0.70     1.80     9.22     0  01:05        1.72
  YS02001600           JUNCTION     0.80     1.87     9.00     0  01:05        1.87
  YS02001601           JUNCTION     0.98     2.06     8.90     0  01:05        2.06
  YS02001602           JUNCTION     0.87     1.87     8.77     0  01:07        1.87
  YS02001605           JUNCTION     0.82     1.78     8.68     0  01:07        1.78
  YS02001607           JUNCTION     0.78     1.68     8.53     0  01:07        1.68
  YS02001610           JUNCTION     0.82     1.68     8.48     0  01:07        1.68
  YS02001613           JUNCTION     0.78     1.70     8.54     0  01:07        1.65
  YS02001616           JUNCTION     0.71     1.61     8.52     0  01:07        1.61
  YS02001619           JUNCTION     0.70     1.61     8.54     0  01:07        1.61
  YS02001622           JUNCTION     0.68     1.62     8.52     0  01:07        1.57
  YS02001625           JUNCTION     0.93     1.78     8.38     0  01:07        1.78
  YS02001629           JUNCTION     0.86     1.85     8.40     0  01:07        1.85
  YS02001633           JUNCTION     0.94     2.08     8.53     0  01:06        1.98
  YS02001641           JUNCTION     0.92     2.10     8.54     0  01:07        1.95
  YS02001644           JUNCTION     0.92     1.92     8.35     0  01:07        1.92
  YS02001647           JUNCTION     0.72     1.90     8.51     0  01:08        1.77
  YS02001649           JUNCTION     0.82     2.05     8.44     0  01:09        2.01
  YS02001652           JUNCTION     0.69     2.16     8.76     0  01:08        1.83
  YS02001655           JUNCTION     0.57     2.20     9.05     0  01:09        1.62
  YS02001658           JUNCTION     0.44     2.30     9.44     0  01:09        1.40
  YS02001661           JUNCTION     0.37     1.48     8.89     0  02:47        1.32
  YS02001664           JUNCTION     0.14     0.58     8.51     0  01:10        0.52
  YS02001745           JUNCTION     0.25     0.89     8.40     0  01:10        0.87
  YS02001748           JUNCTION     0.44     1.85     8.93     0  01:10        1.26
  YS02001751           JUNCTION     0.52     1.88     8.76     0  01:09        1.45
  YS02001754           JUNCTION     0.65     2.20     8.81     0  01:08        1.73
  YS02001757           JUNCTION     0.86     2.21     8.47     0  02:46        2.08
  YS02001759           JUNCTION     0.80     2.21     8.57     0  01:08        2.02
  YS02001762           JUNCTION     0.79     2.15     8.55     0  01:08        2.00
  YS02001765           JUNCTION     0.76     2.10     8.55     0  01:08        1.95
  YS02001767           JUNCTION     0.75     2.03     8.52     0  01:08        1.90
  YS02001770           JUNCTION     0.76     1.95     8.44     0  01:08        1.95
  YS02001774           JUNCTION     0.83     2.05     8.47     0  01:08        2.01
  YS02001779           JUNCTION     0.64     1.68     8.37     0  01:08        1.68
  YS02001783           JUNCTION     0.50     1.29     7.43     0  01:07        1.22
  YS02001784           JUNCTION     0.47     1.32     7.39     0  01:07        1.27
  YS02001786           JUNCTION     0.38     1.25     7.28     0  01:07        0.87
  YS02001788           JUNCTION     0.27     0.62     6.60     0  01:08        0.62
  YS02001790           JUNCTION     0.31     0.72     6.37     0  01:40        0.72
  YS02001791           JUNCTION     0.19     0.44     5.91     0  02:17        0.43
  YS02001793           JUNCTION     0.10     0.30     5.13     0  02:40        0.28
  YS02001882           JUNCTION     0.65     1.83     8.55     0  01:07        1.77
  YS02001884           JUNCTION     0.74     1.93     8.55     0  01:07        1.85
  YS02001887           JUNCTION     0.82     2.00     8.54     0  02:46        2.00
  YS02001890           JUNCTION     0.84     1.81     8.32     0  01:07        1.81
  YS02001895           JUNCTION     0.62     1.75     8.50     0  01:07        1.57
  YS02001898           JUNCTION     0.62     1.77     8.51     0  01:07        1.70
  YS02001901           JUNCTION     0.73     1.87     8.48     0  02:46        1.87
  YS02001904           JUNCTION     0.71     1.85     8.48     0  02:46        1.85
  YS02001907           JUNCTION     1.02     1.96     8.25     0  01:07        1.96
  YS02001910           JUNCTION     0.84     2.10     8.61     0  02:46        2.10
  YS02001915           JUNCTION     0.66     2.00     8.72     0  01:07        2.00
  YS02001918           JUNCTION     0.48     1.81     8.88     0  01:07        1.81
  YS02001920           JUNCTION     0.55     2.14     9.15     0  01:07        1.83
  YS02001923           JUNCTION     0.40     2.03     9.29     0  01:08        1.58
  YS02001926           JUNCTION     0.37     1.90     9.35     0  01:08        1.38
  YS02001929           JUNCTION     0.25     1.78     9.47     0  01:08        1.12
  YS02006553           JUNCTION     1.02     1.99     8.27     0  01:07        1.97
  YS02006556           JUNCTION     0.99     1.98     8.29     0  01:07        1.94
  YS02006558           JUNCTION     1.03     2.02     8.29     0  01:07        1.99
  YS02006561           JUNCTION     0.34     0.94     7.60     0  01:07        0.89
  YS02163301           JUNCTION     0.88     1.97     8.48     0  01:08        1.90
  YS02163601           JUNCTION     0.98     2.08     8.48     0  01:06        2.08
  YS02164001           JUNCTION     0.91     2.09     8.55     0  01:07        1.96
  CC-1                 OUTFALL      0.00     0.00     0.00     0  00:00        0.00
  CC-2                 OUTFALL      0.00     0.00     0.00     0  00:00        0.00
  JK-1                 OUTFALL      0.00     0.00     0.00     0  00:00        0.00
  JK-2                 OUTFALL      0.00     0.00     0.00     0  00:00        0.00
  WSC                  OUTFALL      0.19     0.30     0.97     0  02:23        0.30
  CC-storage           STORAGE      1.17     2.30     7.80     0  02:50        2.30
  JK-storage           STORAGE      1.91     4.24     5.04     0  02:21        4.23
  
  
  *******************
  Node Inflow Summary
  *******************
  
  -------------------------------------------------------------------------------------------------
                                  Maximum  Maximum                  Lateral       Total        Flow
                                  Lateral    Total  Time of Max      Inflow      Inflow     Balance
                                   Inflow   Inflow   Occurrence      Volume      Volume       Error
  Node                 Type           LPS      LPS  days hr:min    10^6 ltr    10^6 ltr     Percent
  -------------------------------------------------------------------------------------------------
  WS02003060           JUNCTION     16.53   557.57     0  02:20       0.476        6.58       0.036
  WS02003066           JUNCTION      0.00   540.79     0  02:20           0         6.1       0.023
  WS02003067           JUNCTION      0.00   540.71     0  02:20           0        6.11       0.070
  WS02003069           JUNCTION      0.32   557.77     0  02:21     0.00922        6.59       0.064
  WS02003072           JUNCTION      0.00   557.47     0  02:21           0        6.58       0.112
  WS02003073           JUNCTION      1.82   559.10     0  02:22      0.0524        6.63       0.091
  WS02004401           JUNCTION      0.00   540.13     0  01:33           0         6.2       0.166
  WS02004402           JUNCTION      0.00   542.92     0  02:45           0        6.19       0.169
  WS02004403           JUNCTION      0.00   543.30     0  02:45           0        6.18       0.163
  WS02004404           JUNCTION      0.16   563.44     0  02:20     0.00467        6.17       0.015
  WS02004405           JUNCTION      0.04   609.10     0  02:17      0.0011        6.17       0.146
  WS02004406           JUNCTION      0.00   551.28     0  02:18           0        6.17       0.338
  WS02004407           JUNCTION      0.00   543.60     0  02:18           0        6.14       0.019
  WS02004409           JUNCTION      0.00   542.85     0  02:18           0        6.14       0.046
  WS02004410           JUNCTION      0.00   541.89     0  02:19           0        6.14       0.075
  WS02004411           JUNCTION      0.00   541.42     0  02:19           0        6.14       0.094
  WS02004412           JUNCTION      0.00   541.12     0  02:19           0        6.13       0.125
  WS02004413           JUNCTION      0.00   540.89     0  02:19           0        6.12       0.222
  WS02006109           JUNCTION      1.23   561.03     0  01:20      0.0354        6.25       0.123
  WS02006110           JUNCTION      0.00   562.92     0  01:20           0        6.24       0.118
  WS02006111           JUNCTION      0.00   562.04     0  03:02           0        6.23       0.015
  WS02006112           JUNCTION      0.00   543.22     0  01:40           0        6.23       0.302
  WS02006113           JUNCTION      0.00   568.49     0  01:21           0        6.23       0.036
  WS02006115           JUNCTION      0.00   552.01     0  03:36           0        6.21       0.112
  WS02006116           JUNCTION      0.00   539.84     0  01:34           0         6.2       0.045
  WS02006228           JUNCTION      0.00   557.60     0  01:20           0        6.22       0.056
  WS02006229           JUNCTION      0.00   557.67     0  01:20           0        6.22       0.087
  WS02006230           JUNCTION     10.28   597.80     0  02:21       0.296        6.22       0.062
  WS02006231           JUNCTION      0.00   589.18     0  02:27           0        5.93       0.014
  WS02006232           JUNCTION      0.00   587.51     0  02:27           0        5.94       0.180
  WS02006234           JUNCTION      0.00   578.78     0  02:27           0        5.93      -0.234
  WS02006235           JUNCTION      0.00   565.60     0  02:27           0        6.02       0.245
  WS02006238           JUNCTION      0.00   434.06     0  01:15           0        4.76      -0.062
  WS02006239           JUNCTION      0.00   432.27     0  01:15           0         4.7      -0.067
  WS02006240           JUNCTION      0.00   427.20     0  01:15           0        4.67      -0.026
  WS02006242           JUNCTION      0.00   427.09     0  01:15           0        4.67       0.013
  WS02006243           JUNCTION      0.00   433.05     0  02:46           0        4.66      -0.079
  WS02006245           JUNCTION      0.00   426.49     0  01:15           0        4.68       0.299
  WS02006247           JUNCTION      0.00   425.97     0  01:15           0        4.68      -0.010
  WS02006248           JUNCTION      0.00   426.16     0  01:15           0        4.68       0.007
  WS02006249           JUNCTION      0.00   470.31     0  01:15           0        5.06       0.329
  WS02006251           JUNCTION      0.08   423.15     0  01:15     0.00222        5.06       0.003
  WS02006252           JUNCTION      0.00   400.00     0  00:00           0        5.05      -0.250
  WS02006256           JUNCTION      0.00   300.00     0  00:00           0        1.89      -1.532
  WSF200               JUNCTION      0.00   540.83     0  02:20           0         6.1       0.008
  YS02001580           JUNCTION      0.00   286.53     0  01:06           0      0.0052      -0.228
  YS02001583           JUNCTION      0.00   290.37     0  01:06           0      0.0154     -12.557
  YS02001586           JUNCTION    746.10   746.22     0  02:21        4.67        4.69       0.049
  YS02001590           JUNCTION      0.00   331.92     0  01:05           0        2.77      -0.042
  YS02001593           JUNCTION      0.00   324.65     0  02:46           0        2.77      -0.001
  YS02001596           JUNCTION      0.00   319.22     0  02:46           0        2.77      -0.046
  YS02001600           JUNCTION      0.00   319.39     0  02:46           0        2.78       0.041
  YS02001601           JUNCTION   1091.59  1409.14     0  01:41        6.18        8.96      -0.000
  YS02001602           JUNCTION      0.00   620.94     0  01:06           0         3.7       0.007
  YS02001605           JUNCTION      0.00   620.96     0  01:06           0        3.24       0.017
  YS02001607           JUNCTION      0.00   620.86     0  01:06           0        3.24       0.041
  YS02001610           JUNCTION      0.00   699.34     0  01:06           0        4.31       0.051
  YS02001613           JUNCTION      0.00   623.65     0  01:06           0         2.1       0.060
  YS02001616           JUNCTION      0.00   578.75     0  01:06           0        2.11       0.002
  YS02001619           JUNCTION   1232.80  1232.80     0  02:21        7.54        8.56      -0.006
  YS02001622           JUNCTION      0.00  1005.75     0  01:06           0        7.47      -0.005
  YS02001625           JUNCTION      0.00  1226.68     0  01:40           0        8.61       0.070
  YS02001629           JUNCTION      0.00   814.93     0  01:25           0        3.32       0.074
  YS02001633           JUNCTION    817.75  1305.28     0  01:08        4.57        6.74       0.045
  YS02001641           JUNCTION      0.00  1301.41     0  01:08           0        5.61       0.047
  YS02001644           JUNCTION    722.05  1872.53     0  01:08        3.98        9.57       0.028
  YS02001647           JUNCTION      0.00  1872.53     0  01:08           0        6.84       0.008
  YS02001649           JUNCTION      0.00  2188.40     0  01:08           0        10.6       0.005
  YS02001652           JUNCTION      0.00   769.83     0  01:11           0        3.73      -0.116
  YS02001655           JUNCTION      0.15   842.76     0  01:09     0.00443        3.73       0.087
  YS02001658           JUNCTION      0.00   769.55     0  01:11           0        3.73       0.045
  YS02001661           JUNCTION      0.00   877.86     0  01:38           0         3.7      -0.739
  YS02001664           JUNCTION    694.41   694.41     0  01:40         3.7         3.7       0.048
  YS02001745           JUNCTION    424.11   574.61     0  01:09        2.18        2.18       0.095
  YS02001748           JUNCTION      0.04   664.55     0  01:10      0.0013        2.19      -0.158
  YS02001751           JUNCTION      0.01   553.00     0  01:10    0.000317        2.19       0.128
  YS02001754           JUNCTION      0.26   554.12     0  01:10     0.00749         2.2      -0.144
  YS02001757           JUNCTION      0.00  3506.93     0  01:10           0        19.5       0.038
  YS02001759           JUNCTION    589.73  1400.99     0  01:10        3.04        6.71      -0.005
  YS02001762           JUNCTION      0.00   825.30     0  01:10           0        3.68       0.005
  YS02001765           JUNCTION      0.00   827.19     0  01:10           0        3.67       0.005
  YS02001767           JUNCTION      0.54   826.94     0  01:10      0.0154        3.67       0.012
  YS02001770           JUNCTION    854.03   854.03     0  01:40        4.57        4.62      -0.013
  YS02001774           JUNCTION      0.00   506.49     0  01:08           0       0.978       0.096
  YS02001779           JUNCTION      0.01   495.85     0  01:08    0.000144       0.934      -0.043
  YS02001783           JUNCTION      0.00  1157.65     0  01:39           0        9.06       0.003
  YS02001784           JUNCTION      1.06  1158.90     0  01:39      0.0305        9.09       0.005
  YS02001786           JUNCTION      0.06  1158.87     0  01:39     0.00162        9.09       0.007
  YS02001788           JUNCTION      0.07  1158.90     0  01:39     0.00204         9.1       0.003
  YS02001790           JUNCTION      0.15  1178.00     0  01:08     0.00446         9.1       0.024
  YS02001791           JUNCTION      0.00  1288.61     0  01:40           0         9.1      -0.057
  YS02001793           JUNCTION      0.00  1249.47     0  02:20           0         9.1       0.007
  YS02001882           JUNCTION      0.00   112.35     0  01:07           0      0.0141       4.823
  YS02001884           JUNCTION      0.00   264.75     0  01:07           0       0.051       5.210
  YS02001887           JUNCTION    640.66   641.89     0  01:08        3.12        3.15       0.127
  YS02001890           JUNCTION      0.00   642.50     0  01:08           0        3.11       0.162
  YS02001895           JUNCTION      0.00   642.11     0  01:07           0        3.04       0.132
  YS02001898           JUNCTION      0.00   643.00     0  01:07           0        3.04      -0.053
  YS02001901           JUNCTION      0.00   644.23     0  01:07           0        3.05       0.117
  YS02001904           JUNCTION      0.00   644.79     0  01:07           0        3.08       0.085
  YS02001907           JUNCTION      0.00  1697.48     0  01:41           0        9.82       0.172
  YS02001910           JUNCTION      0.00  1180.23     0  01:41           0        6.74       0.106
  YS02001915           JUNCTION    783.66  1179.93     0  01:40        4.36         6.8       0.013
  YS02001918           JUNCTION      0.00   888.04     0  01:07           0        2.48       0.022
  YS02001920           JUNCTION      2.87   869.29     0  01:07      0.0827        2.44       0.003
  YS02001923           JUNCTION      0.04   961.15     0  01:08     0.00109        2.34      -0.032
  YS02001926           JUNCTION      0.05  1214.09     0  01:08      0.0015        2.32      -0.034
  YS02001929           JUNCTION    395.64   906.69     0  01:08        2.29         2.3      -0.017
  YS02006553           JUNCTION      0.00   810.73     0  03:03           0        4.58       0.255
  YS02006556           JUNCTION      0.00   812.36     0  03:03           0         4.6       0.167
  YS02006558           JUNCTION    868.37  1174.27     0  01:07        4.59        9.13       0.036
  YS02006561           JUNCTION      0.00  1176.36     0  01:07           0        9.06       0.001
  YS02163301           JUNCTION      0.00   813.85     0  01:25           0        3.32       0.042
  YS02163601           JUNCTION      0.11  1304.58     0  01:08     0.00317        5.58       0.081
  YS02164001           JUNCTION      0.00  1303.03     0  01:08           0        5.59       0.035
  CC-1                 OUTFALL       0.00   683.00     0  00:00           0        7.77       0.000
  CC-2                 OUTFALL       0.00   683.00     0  00:00           0        7.44       0.000
  JK-1                 OUTFALL       0.00  1000.00     0  00:00           0        3.96       0.000
  JK-2                 OUTFALL       0.00  1000.00     0  00:00           0        3.38       0.000
  WSC                  OUTFALL       0.00   558.86     0  02:23           0        6.62       0.000
  CC-storage           STORAGE       0.00  3504.97     0  01:10           0        21.7      -0.157
  JK-storage           STORAGE       0.00  1277.71     0  02:17           0        9.25      -0.189
  
  
  **********************
  Node Surcharge Summary
  **********************
  
  Surcharging occurs when water rises above the top of the highest conduit.
  ---------------------------------------------------------------------
                                               Max. Height   Min. Depth
                                   Hours       Above Crown    Below Rim
  Node                 Type      Surcharged         Meters       Meters
  ---------------------------------------------------------------------
  WS02004404           JUNCTION        0.09          0.064        2.716
  WS02006109           JUNCTION        3.02          0.318        1.502
  WS02006110           JUNCTION        1.31          0.241        1.609
  WS02006112           JUNCTION        1.51          0.087        1.593
  WS02006228           JUNCTION        3.01          0.394        1.806
  WS02006229           JUNCTION        3.02          0.477        1.973
  WS02006230           JUNCTION        1.32          0.429        1.141
  WS02006231           JUNCTION        1.46          0.455        1.075
  WS02006232           JUNCTION        3.13          0.608        0.872
  WS02006234           JUNCTION        1.95          0.575        0.665
  WS02006235           JUNCTION        2.99          0.816        0.474
  WS02006238           JUNCTION        3.08          0.853        0.577
  WS02006239           JUNCTION        3.03          0.822        0.468
  WS02006240           JUNCTION        3.05          0.834        0.556
  WS02006242           JUNCTION        3.14          0.820        0.000
  WS02006243           JUNCTION        3.06          0.688        0.082
  WS02006245           JUNCTION        3.06          0.850        0.000
  WS02006247           JUNCTION        3.08          0.760        0.000
  WS02006248           JUNCTION        3.05          0.380        0.000
  WS02006249           JUNCTION        3.06          0.390        0.000
  WS02006251           JUNCTION        1.54          1.133        0.047
  WS02006252           JUNCTION        3.38          1.100        0.000
  WS02006256           JUNCTION        7.18          2.050        0.000
  YS02001580           JUNCTION        2.08          0.450        0.000
  YS02001583           JUNCTION        2.08          0.500        0.000
  YS02001586           JUNCTION        2.17          0.510        0.000
  YS02001590           JUNCTION        2.22          0.750        0.000
  YS02001593           JUNCTION        2.22          0.840        0.000
  YS02001596           JUNCTION        2.28          1.070        0.000
  YS02001600           JUNCTION        2.37          1.190        0.000
  YS02001601           JUNCTION        2.55          1.440        0.000
  YS02001602           JUNCTION        2.51          1.270        0.000
  YS02001605           JUNCTION        2.49          1.180        0.000
  YS02001607           JUNCTION        2.24          0.680        0.000
  YS02001610           JUNCTION        2.26          0.680        0.000
  YS02001613           JUNCTION        2.24          0.700        0.000
  YS02001616           JUNCTION        2.21          0.610        0.000
  YS02001619           JUNCTION        2.20          0.610        0.000
  YS02001622           JUNCTION        2.21          0.620        0.000
  YS02001625           JUNCTION        2.35          0.780        0.000
  YS02001629           JUNCTION        2.18          0.470        0.000
  YS02001633           JUNCTION        2.40          1.060        0.000
  YS02001641           JUNCTION        2.41          1.100        0.000
  YS02001644           JUNCTION        2.40          0.920        0.000
  YS02001647           JUNCTION        2.28          0.900        0.000
  YS02001649           JUNCTION        2.40          1.050        0.000
  YS02001652           JUNCTION        2.24          1.130        0.000
  YS02001655           JUNCTION        1.97          1.200        0.000
  YS02001658           JUNCTION        1.63          1.300        0.000
  YS02001661           JUNCTION        0.15          0.411        0.979
  YS02001748           JUNCTION        1.50          0.774        0.416
  YS02001751           JUNCTION        1.83          0.880        0.320
  YS02001754           JUNCTION        2.09          1.150        0.000
  YS02001757           JUNCTION        2.48          1.210        0.000
  YS02001759           JUNCTION        2.41          1.210        0.000
  YS02001762           JUNCTION        2.38          1.150        0.000
  YS02001765           JUNCTION        2.34          1.100        0.000
  YS02001767           JUNCTION        2.31          1.030        0.000
  YS02001770           JUNCTION        2.29          0.920        0.000
  YS02001774           JUNCTION        2.36          1.050        0.000
  YS02001779           JUNCTION        2.08          0.680        0.000
  YS02001783           JUNCTION        2.01          0.492        1.108
  YS02001784           JUNCTION        2.00          0.520        0.970
  YS02001786           JUNCTION        1.94          0.450        0.980
  YS02001882           JUNCTION        1.99          0.830        0.000
  YS02001884           JUNCTION        1.99          0.870        0.000
  YS02001887           JUNCTION        2.01          0.950        0.000
  YS02001890           JUNCTION        2.02          0.760        0.000
  YS02001895           JUNCTION        1.98          0.750        0.000
  YS02001898           JUNCTION        1.97          0.740        0.000
  YS02001901           JUNCTION        2.00          0.870        0.000
  YS02001904           JUNCTION        2.00          0.850        0.000
  YS02001907           JUNCTION        2.10          0.950        0.000
  YS02001910           JUNCTION        2.03          1.100        0.000
  YS02001915           JUNCTION        1.98          1.000        0.000
  YS02001918           JUNCTION        1.87          0.810        0.000
  YS02001920           JUNCTION        1.92          1.140        0.000
  YS02001923           JUNCTION        0.01          0.820        0.000
  YS02001926           JUNCTION        0.10          0.900        0.000
  YS02001929           JUNCTION        0.01          0.780        0.000
  YS02006553           JUNCTION        2.11          0.986        0.204
  YS02006556           JUNCTION        2.07          0.940        0.410
  YS02006558           JUNCTION        2.06          0.922        0.478
  YS02006561           JUNCTION        1.80          0.144        1.006
  YS02163301           JUNCTION        2.38          0.966        0.064
  YS02163601           JUNCTION        2.44          1.080        0.000
  YS02164001           JUNCTION        2.39          1.092        0.008
  
  
  *********************
  Node Flooding Summary
  *********************
  
  Flooding refers to all water that overflows a node, whether it ponds or not.
  --------------------------------------------------------------------------
                                                             Total   Maximum
                                 Maximum   Time of Max       Flood    Ponded
                        Hours       Rate    Occurrence      Volume     Depth
  Node                 Flooded       LPS   days hr:min    10^6 ltr    Meters
  --------------------------------------------------------------------------
  WS02006242              0.01      4.49      0  02:27       0.000     0.000
  WS02006245              0.01      0.27      0  02:46       0.000     0.000
  WS02006247              0.01      0.41      0  02:46       0.000     0.000
  WS02006248              0.01     15.07      0  02:21       0.000     0.000
  WS02006249              1.50    153.18      0  01:15       0.368     0.000
  WS02006252              0.01    245.63      0  00:00       0.000     0.000
  WS02006256              1.75    293.19      0  00:00       0.645     0.000
  YS02001580              0.01    274.06      0  01:06       0.001     0.000
  YS02001583              0.01    238.18      0  01:06       0.001     0.000
  YS02001586              2.02    428.79      0  02:21       1.904     0.000
  YS02001590              0.01    308.32      0  01:05       0.001     0.000
  YS02001593              0.01    196.97      0  01:05       0.000     0.000
  YS02001596              0.01     23.74      0  01:05       0.000     0.000
  YS02001600              0.01     21.69      0  01:05       0.000     0.000
  YS02001601              2.12   1011.24      0  01:41       5.253     0.000
  YS02001602              2.09     62.09      0  02:03       0.460     0.000
  YS02001605              0.01      8.97      0  01:07       0.000     0.000
  YS02001607              0.01    465.49      0  01:07       0.004     0.000
  YS02001610              2.04    672.32      0  02:21       3.292     0.000
  YS02001613              0.01    389.74      0  01:07       0.001     0.000
  YS02001616              0.01    446.08      0  01:07       0.001     0.000
  YS02001619              0.01    259.92      0  01:07       0.000     0.000
  YS02001622              0.01    335.47      0  01:07       0.000     0.000
  YS02001625              2.03   1226.39      0  01:40       6.435     0.000
  YS02001629              0.10    274.40      0  01:07       0.018     0.000
  YS02001633              0.01    182.30      0  01:06       0.000     0.000
  YS02001641              0.01    330.14      0  01:07       0.000     0.000
  YS02001644              1.56    891.98      0  02:21       2.702     0.000
  YS02001647              0.01     81.56      0  01:08       0.000     0.000
  YS02001649              0.01     83.52      0  02:46       0.000     0.000
  YS02001652              0.01    469.25      0  01:08       0.001     0.000
  YS02001655              0.01    600.28      0  01:09       0.001     0.000
  YS02001658              0.01    351.83      0  01:09       0.000     0.000
  YS02001754              0.01    354.60      0  01:08       0.000     0.000
  YS02001757              0.01     49.51      0  02:46       0.000     0.000
  YS02001759              0.01    107.50      0  01:08       0.000     0.000
  YS02001762              0.01    156.39      0  01:08       0.000     0.000
  YS02001765              0.01    253.48      0  01:08       0.001     0.000
  YS02001767              0.01     96.20      0  01:08       0.000     0.000
  YS02001770              0.01    194.72      0  01:08       0.001     0.000
  YS02001774              0.01    185.52      0  01:08       0.000     0.000
  YS02001779              1.38    457.91      0  01:09       0.916     0.000
  YS02001882              0.01     97.59      0  01:07       0.001     0.000
  YS02001884              0.01    136.98      0  01:07       0.000     0.000
  YS02001887              0.01      0.77      0  02:46       0.000     0.000
  YS02001890              0.46    290.36      0  01:07       0.063     0.000
  YS02001895              0.01     83.46      0  01:07       0.000     0.000
  YS02001898              0.01    275.48      0  01:07       0.001     0.000
  YS02001901              0.01      0.23      0  02:46       0.000     0.000
  YS02001904              0.01      1.04      0  02:46       0.000     0.000
  YS02001907              1.77   1407.60      0  01:40       5.234     0.000
  YS02001910              0.01      0.59      0  02:46       0.000     0.000
  YS02001915              0.01    357.73      0  01:07       0.001     0.000
  YS02001918              0.01    265.20      0  01:08       0.004     0.000
  YS02001920              0.01    718.73      0  01:07       0.001     0.000
  YS02001923              0.01    476.40      0  01:08       0.003     0.000
  YS02001926              0.01    771.69      0  01:08       0.003     0.000
  YS02001929              0.01    777.30      0  01:08       0.002     0.000
  YS02163601              0.01    318.53      0  01:06       0.000     0.000
  CC-storage              0.18    121.56      0  02:51       0.068     0.000
  
  
  **********************
  Storage Volume Summary
  **********************
  
  ------------------------------------------------------------------------------------------------
                         Average    Avg   Evap  Exfil     Maximum    Max    Time of Max    Maximum
                          Volume   Pcnt   Pcnt   Pcnt      Volume   Pcnt     Occurrence    Outflow
  Storage Unit           1000 m³   Full   Loss   Loss     1000 m³   Full    days hr:min        LPS
  ------------------------------------------------------------------------------------------------
  CC-storage               3.272   51.0    0.0    0.0       6.410  100.0       0  02:50    1783.53
  JK-storage               0.096   32.9    0.0    0.0       0.213   73.2       0  02:21    2300.00
  
  
  ***********************
  Outfall Loading Summary
  ***********************
  
  -----------------------------------------------------------
                         Flow       Avg       Max       Total
                         Freq      Flow      Flow      Volume
  Outfall Node           Pcnt       LPS       LPS    10^6 ltr
  -----------------------------------------------------------
  CC-1                  53.18    683.00    683.00       7.773
  CC-2                  54.00    683.00    683.00       7.441
  JK-1                  18.69   1000.00   1000.00       3.958
  JK-2                  16.33   1000.00   1000.00       3.383
  WSC                   99.95    295.34    558.86       6.621
  -----------------------------------------------------------
  System                48.43   3661.34   3923.35      29.176
  
  
  ********************
  Link Flow Summary
  ********************
  
  -----------------------------------------------------------------------------
                                 Maximum  Time of Max   Maximum    Max/    Max/
                                  |Flow|   Occurrence   |Veloc|    Full    Full
  Link                 Type          LPS  days hr:min     m/sec    Flow   Depth
  -----------------------------------------------------------------------------
  1                    CONDUIT    558.86     0  02:23      2.83    0.19    0.30
  WS02003060WS02003069 CONDUIT    557.45     0  02:21      1.65    0.22    0.34
  WS02003066WSF200     CONDUIT    540.83     0  02:20      2.86    0.09    0.22
  WS02003067WS02003066 CONDUIT    540.79     0  02:20      1.21    0.17    0.42
  WS02003069WS02003072 CONDUIT    557.47     0  02:21      1.37    0.27    0.39
  WS02003072WS02003073 CONDUIT    557.28     0  02:22      1.44    1.20    0.37
  WS02004401WS02004402 CONDUIT    542.92     0  02:45      1.08    0.65    0.89
  WS02004402WS02004403 CONDUIT    543.30     0  02:45      1.09    0.78    0.91
  WS02004403WS02004404 CONDUIT    563.27     0  02:20      1.05    0.41    0.96
  WS02004404WS02004405 CONDUIT    609.06     0  02:17      1.24    5.97    0.98
  WS02004405WS02004406 CONDUIT    551.28     0  02:18      1.20    1.09    0.97
  WS02004406WS02004407 CONDUIT    543.60     0  02:18      1.05    0.24    0.63
  WS02004407WS02004409 CONDUIT    542.85     0  02:18      1.58    0.19    0.48
  WS02004409WS02004410 CONDUIT    541.89     0  02:19      1.01    0.70    0.68
  WS02004410WS02004411 CONDUIT    541.42     0  02:19      0.95    0.74    0.69
  WS02004411WS02004412 CONDUIT    541.12     0  02:19      0.93    0.77    0.70
  WS02004412WS02004413 CONDUIT    540.89     0  02:19      0.82    0.36    0.78
  WS02004413WS02003067 CONDUIT    540.71     0  02:20      1.11    0.23    0.59
  WS02006109WS02006110 CONDUIT    562.92     0  01:20      1.12    1.08    1.00
  WS02006110WS02006113 CONDUIT    568.49     0  01:21      1.37    0.52    0.79
  WS02006111WS02006112 CONDUIT    543.22     0  01:40      1.87    0.26    0.67
  WS02006112WS02006115 CONDUIT    552.01     0  03:36      0.80    0.33    0.88
  WS02006113WS02006111 CONDUIT    562.04     0  03:02      2.47    0.67    0.46
  WS02006115WS02006116 CONDUIT    539.84     0  01:34      1.09    0.69    0.79
  WS02006116WS02004401 CONDUIT    540.13     0  01:33      1.07    0.74    0.87
  WS02006228WS02006109 CONDUIT    559.80     0  01:20      1.11    2.45    1.00
  WS02006229WS02006228 CONDUIT    557.60     0  01:20      1.11    1.85    1.00
  WS02006230WS02006229 CONDUIT    557.67     0  01:20      1.45   12.41    1.00
  WS02006231WS02006230 CONDUIT    587.52     0  02:21      1.59    8.91    1.00
  WS02006232WS02006231 CONDUIT    589.18     0  02:27      1.54    1.23    1.00
  WS02006234WS02006232 CONDUIT    587.51     0  02:27      1.53    1.19    1.00
  WS02006235WS02006234 CONDUIT    578.78     0  02:27      1.50    6.11    1.00
  WS02006238WS02006235 CONDUIT    434.12     0  01:15      1.47    0.97    1.00
  WS02006239WS02006238 CONDUIT    434.06     0  01:15      1.13    1.39    1.00
  WS02006240WS02006239 CONDUIT    432.27     0  01:15      1.24    1.36    1.00
  WS02006242WS02006240 CONDUIT    427.20     0  01:15      1.13    1.70    1.00
  WS02006243WS02006242 CONDUIT    427.09     0  01:15      1.40    0.91    1.00
  WS02006245WS02006243 CONDUIT    433.05     0  02:46      1.45    1.28    1.00
  WS02006247WS02006245 CONDUIT    426.49     0  01:15      1.43    3.38    1.00
  WS02006248WS02006247 CONDUIT    425.97     0  01:15      1.44    0.93    1.00
  WS02006249WS02006248 CONDUIT    426.16     0  01:15      1.36    2.33    1.00
  WS02006251WS02006249 CONDUIT    470.31     0  01:15      1.99    1.36    1.00
  WS02006252WS02006251 CONDUIT    423.07     0  01:15     18.57    1.55    1.00
  WS02006256WS02006235 CONDUIT    288.91     0  00:00      4.23    3.06    1.00
  WSF200WS02003060     CONDUIT    541.04     0  02:20      2.06    0.12    0.28
  YS02001580YS02001583 CONDUIT    286.53     0  01:06      1.12    1.11    1.00
  YS02001583YS02001586 CONDUIT    290.37     0  01:06      1.30    0.44    1.00
  YS02001586YS02001590 CONDUIT    331.12     0  02:46      1.43    0.58    1.00
  YS02001590YS02001593 CONDUIT    324.65     0  02:46      1.15    2.04    1.00
  YS02001593YS02001596 CONDUIT    319.22     0  02:46      1.67    0.50    1.00
  YS02001596YS02001600 CONDUIT    319.39     0  02:46      1.24    0.62    1.00
  YS02001600YS02001601 CONDUIT    318.48     0  02:46      1.13    0.55    1.00
  YS02001601YS02001602 CONDUIT    620.94     0  01:06      2.20    2.24    1.00
  YS02001602YS02001605 CONDUIT    620.96     0  01:06      2.20   13.14    1.00
  YS02001605YS02001607 CONDUIT    620.86     0  01:06      2.20    3.40    1.00
  YS02001607YS02001610 CONDUIT    699.34     0  01:06      1.06    0.66    1.00
  YS02001610YS02001613 CONDUIT    623.65     0  01:06      0.89    0.72    1.00
  YS02001613YS02001616 CONDUIT    578.75     0  01:06      0.90    0.50    1.00
  YS02001616YS02001619 CONDUIT    519.89     0  01:06      0.94    0.90    1.00
  YS02001619YS02001622 CONDUIT   1005.75     0  01:06      2.18    1.48    1.00
  YS02001622YS02001625 CONDUIT    898.73     0  01:40      1.34    0.48    1.00
  YS02001625YS02001629 CONDUIT    814.93     0  01:25      1.10    0.39    1.00
  YS02001629YS02163301 CONDUIT    813.85     0  01:25      1.04    1.00    1.00
  YS02001633YS02163601 CONDUIT   1304.47     0  01:08      1.66    1.37    1.00
  YS02001641YS02001644 CONDUIT   1301.67     0  01:08      1.66    4.21    1.00
  YS02001644YS02001647 CONDUIT   1872.53     0  01:08      2.39    1.10    1.00
  YS02001647YS02001649 CONDUIT   1874.01     0  01:08      2.39    0.99    1.00
  YS02001649YS02001757 CONDUIT   2188.23     0  01:08      2.79    1.33    1.00
  YS02001652YS02001649 CONDUIT    769.91     0  01:11      1.68    0.38    1.00
  YS02001655YS02001652 CONDUIT    769.83     0  01:11      2.12    0.37    1.00
  YS02001658YS02001655 CONDUIT    842.60     0  01:09      2.27    0.36    1.00
  YS02001661YS02001658 CONDUIT    769.55     0  01:11      2.54    0.30    1.00
  YS02001664YS02001661 CONDUIT    877.86     0  01:38      2.48    0.28    0.78
  YS02001745YS02001748 CONDUIT    664.50     0  01:10      2.42    0.26    0.93
  YS02001748YS02001751 CONDUIT    552.98     0  01:10      1.99    0.28    1.00
  YS02001751YS02001754 CONDUIT    553.86     0  01:10      1.98    0.27    1.00
  YS02001754YS02001757 CONDUIT    555.45     0  01:10      1.36    0.22    1.00
  YS02001757CaochengTiaoxuchi CONDUIT   3504.97     0  01:10      4.96    1.52    1.00
  YS02001759YS02001757 CONDUIT   1401.44     0  01:09      1.78    1.00    1.00
  YS02001762YS02001759 CONDUIT    821.89     0  01:10      1.05    0.95    1.00
  YS02001765YS02001762 CONDUIT    825.30     0  01:10      1.05    0.77    1.00
  YS02001767YS02001765 CONDUIT    827.19     0  01:10      1.05    1.04    1.00
  YS02001770YS02001767 CONDUIT    826.40     0  01:10      1.09    3.27    1.00
  YS02001774YS02001770 CONDUIT    506.49     0  01:08      0.95    0.32    1.00
  YS02001779YS02001774 CONDUIT    495.85     0  01:08      0.67    0.25    1.00
  YS02001783YS02001784 CONDUIT   1157.84     0  01:39      2.30    1.60    1.00
  YS02001784YS02001785 CONDUIT   1158.81     0  01:39      2.31    2.70    1.00
  YS02001786YS02001788 CONDUIT   1158.83     0  01:39      2.48    2.23    0.89
  YS02001788YS02001790 CONDUIT   1177.85     0  01:08      2.74    0.87    0.84
  YS02001790YS02001791 CONDUIT   1288.61     0  01:40      3.44    1.40    0.70
  YS02001791YS02001793 CONDUIT   1249.47     0  02:20      6.78    0.54    0.45
  YS02001793JiankangQianchi CONDUIT   1277.71     0  02:17      2.56    0.10    0.65
  YS02001882YS02001884 CONDUIT    112.35     0  01:07      0.57    0.13    1.00
  YS02001884YS02001887 CONDUIT    264.75     0  01:07      0.55    0.35    1.00
  YS02001887YS02001890 CONDUIT    642.50     0  01:08      0.82    1.10    1.00
  YS02001890YS02001895 CONDUIT    642.11     0  01:07      0.82    0.30    1.00
  YS02001895YS02001898 CONDUIT    643.00     0  01:07      0.92    1.12    1.00
  YS02001898YS02001901 CONDUIT    644.23     0  01:07      0.82    0.42    1.00
  YS02001901YS02001904 CONDUIT    644.79     0  01:07      0.89    1.00    1.00
  YS02001904YS02001907 CONDUIT    645.49     0  01:07      0.82    0.23    1.00
  YS02001907YS02006553 CONDUIT    810.73     0  03:03      0.90    0.95    1.00
  YS02001910YS02001907 CONDUIT   1179.81     0  01:41      1.50    0.67    1.00
  YS02001915YS02001910 CONDUIT   1180.23     0  01:41      1.50    0.59    1.00
  YS02001918YS02001915 CONDUIT    888.04     0  01:07      1.13    0.49    1.00
  YS02001920YS02001918 CONDUIT    845.44     0  01:07      1.08    0.82    1.00
  YS02001923YS02001920 CONDUIT    790.30     0  01:08      1.05    0.35    1.00
  YS02001926YS02001923 CONDUIT    990.79     0  01:08      1.40    1.41    1.00
  YS02001929YS02001926 CONDUIT    627.97     0  01:08      1.23    0.30    1.00
  YS02006553YS02006556 CONDUIT    812.36     0  03:03      1.03    0.69    1.00
  YS02006556YS02006558 CONDUIT    814.31     0  03:03      1.04    0.64    1.00
  YS02006558YS02006561 CONDUIT   1176.36     0  01:07      4.16    2.60    1.00
  YS02006561YS02001783 CONDUIT   1157.65     0  01:39      2.30    0.60    1.00
  YS02163301YS02001633 CONDUIT    813.25     0  01:25      1.04    0.76    1.00
  YS02163601YS02164001 CONDUIT   1303.03     0  01:08      1.66    1.15    1.00
  YS02164001YS02001641 CONDUIT   1301.41     0  01:08      1.66    1.78    1.00
  CC-R1                PUMP       683.00     0  00:00              1.00
  CC-R2                PUMP       683.00     0  00:00              1.00
  CC-S1                PUMP       200.00     0  00:00              1.00
  CC-S2                PUMP       200.00     0  00:00              1.00
  JK-R1                PUMP      1000.00     0  00:00              1.00
  JK-R2                PUMP      1000.00     0  00:00              1.00
  JK-S                 PUMP       300.00     0  00:00              1.00
  
  
  ***************************
  Flow Classification Summary
  ***************************
  
  -------------------------------------------------------------------------------------
                      Adjusted    ---------- Fraction of Time in Flow Class ---------- 
                       /Actual         Up    Down  Sub   Sup   Up    Down  Norm  Inlet 
  Conduit               Length    Dry  Dry   Dry   Crit  Crit  Crit  Crit  Ltd   Ctrl  
  -------------------------------------------------------------------------------------
  1                       1.00   0.00  0.00  0.00  0.00  1.00  0.00  0.00  0.35  0.00
  WS02003060WS02003069    1.00   0.00  0.00  0.00  0.98  0.02  0.00  0.00  0.59  0.00
  WS02003066WSF200        1.00   0.08  0.00  0.00  0.00  0.92  0.00  0.00  0.74  0.00
  WS02003067WS02003066    1.00   0.07  0.01  0.00  0.93  0.00  0.00  0.00  0.00  0.00
  WS02003069WS02003072    1.00   0.00  0.00  0.00  0.99  0.01  0.00  0.00  0.60  0.00
  WS02003072WS02003073    1.00   0.00  0.00  0.00  0.00  0.00  0.00  1.00  0.00  0.00
  WS02004401WS02004402    1.00   0.02  0.00  0.00  0.98  0.00  0.00  0.00  0.00  0.00
  WS02004402WS02004403    1.00   0.02  0.00  0.00  0.97  0.00  0.00  0.00  0.00  0.00
  WS02004403WS02004404    1.00   0.00  0.03  0.00  0.97  0.00  0.00  0.00  0.00  0.00
  WS02004404WS02004405    1.00   0.00  0.00  0.00  1.00  0.00  0.00  0.00  0.01  0.00
  WS02004405WS02004406    1.00   0.00  0.00  0.00  1.00  0.00  0.00  0.00  0.00  0.00
  WS02004406WS02004407    1.00   0.00  0.04  0.00  0.96  0.00  0.00  0.00  0.00  0.00
  WS02004407WS02004409    1.00   0.04  0.00  0.00  0.95  0.01  0.00  0.00  0.95  0.00
  WS02004409WS02004410    1.00   0.04  0.00  0.00  0.96  0.00  0.00  0.00  0.00  0.00
  WS02004410WS02004411    1.00   0.04  0.00  0.00  0.96  0.00  0.00  0.00  0.00  0.00
  WS02004411WS02004412    1.00   0.04  0.00  0.00  0.96  0.00  0.00  0.00  0.00  0.00
  WS02004412WS02004413    1.00   0.04  0.00  0.00  0.95  0.00  0.00  0.00  0.01  0.00
  WS02004413WS02003067    1.00   0.05  0.02  0.00  0.00  0.00  0.93  0.00  0.00  0.00
  WS02006109WS02006110    1.00   0.00  0.01  0.00  0.98  0.00  0.01  0.00  0.00  0.00
  WS02006110WS02006113    1.00   0.01  0.01  0.00  0.98  0.00  0.00  0.00  0.00  0.00
  WS02006111WS02006112    1.00   0.02  0.00  0.00  0.98  0.00  0.00  0.00  0.98  0.00
  WS02006112WS02006115    1.00   0.02  0.00  0.00  0.97  0.00  0.00  0.00  0.00  0.00
  WS02006113WS02006111    1.00   0.02  0.00  0.00  0.00  0.98  0.00  0.00  0.14  0.00
  WS02006115WS02006116    1.00   0.02  0.00  0.00  0.97  0.00  0.00  0.01  0.00  0.00
  WS02006116WS02004401    1.00   0.02  0.00  0.00  0.98  0.00  0.00  0.00  0.00  0.00
  WS02006228WS02006109    1.00   0.00  0.00  0.00  1.00  0.00  0.00  0.00  0.00  0.00
  WS02006229WS02006228    1.00   0.00  0.00  0.00  0.99  0.00  0.00  0.01  0.00  0.00
  WS02006230WS02006229    1.00   0.00  0.00  0.00  0.99  0.00  0.00  0.01  0.02  0.00
  WS02006231WS02006230    1.00   0.00  0.00  0.00  0.40  0.00  0.59  0.00  0.00  0.00
  WS02006232WS02006231    1.00   0.00  0.00  0.00  0.99  0.00  0.01  0.00  0.00  0.00
  WS02006234WS02006232    1.00   0.00  0.00  0.00  1.00  0.00  0.00  0.00  0.03  0.00
  WS02006235WS02006234    1.00   0.00  0.00  0.00  0.93  0.00  0.07  0.00  0.00  0.00
  WS02006238WS02006235    1.00   0.00  0.00  0.00  1.00  0.00  0.00  0.00  0.00  0.00
  WS02006239WS02006238    1.00   0.00  0.00  0.00  1.00  0.00  0.00  0.00  0.12  0.00
  WS02006240WS02006239    1.00   0.00  0.00  0.00  0.75  0.00  0.00  0.24  0.03  0.00
  WS02006242WS02006240    1.00   0.00  0.00  0.00  0.99  0.00  0.01  0.00  0.00  0.00
  WS02006243WS02006242    1.00   0.00  0.00  0.00  0.99  0.00  0.00  0.01  0.51  0.00
  WS02006245WS02006243    1.00   0.00  0.00  0.00  0.83  0.00  0.00  0.17  0.01  0.00
  WS02006247WS02006245    1.00   0.00  0.00  0.00  0.97  0.00  0.00  0.03  0.00  0.00
  WS02006248WS02006247    1.00   0.00  0.00  0.00  0.98  0.00  0.00  0.01  0.46  0.00
  WS02006249WS02006248    1.00   0.00  0.00  0.00  0.54  0.00  0.46  0.00  0.00  0.00
  WS02006251WS02006249    1.00   0.00  0.00  0.00  0.99  0.01  0.00  0.00  0.47  0.00
  WS02006252WS02006251    1.00   0.00  0.38  0.00  0.19  0.00  0.43  0.00  0.00  0.00
  WS02006256WS02006235    1.00   0.00  0.00  0.00  0.98  0.02  0.00  0.00  0.00  0.00
  WSF200WS02003060        1.00   0.00  0.08  0.00  0.34  0.58  0.00  0.00  0.50  0.00
  YS02001580YS02001583    1.00   0.14  0.49  0.00  0.37  0.00  0.00  0.00  0.59  0.00
  YS02001583YS02001586    1.00   0.36  0.21  0.00  0.42  0.00  0.00  0.00  0.59  0.00
  YS02001586YS02001590    1.00   0.13  0.00  0.00  0.52  0.03  0.00  0.32  0.27  0.00
  YS02001590YS02001593    1.00   0.13  0.00  0.00  0.28  0.00  0.59  0.00  0.00  0.00
  YS02001593YS02001596    1.00   0.13  0.00  0.00  0.30  0.00  0.00  0.57  0.01  0.00
  YS02001596YS02001600    1.00   0.13  0.00  0.00  0.33  0.01  0.00  0.54  0.02  0.00
  YS02001600YS02001601    1.00   0.13  0.00  0.00  0.87  0.00  0.00  0.00  0.52  0.00
  YS02001601YS02001602    1.00   0.13  0.00  0.00  0.87  0.00  0.00  0.00  0.00  0.00
  YS02001602YS02001605    1.00   0.13  0.00  0.00  0.87  0.00  0.00  0.00  0.00  0.00
  YS02001605YS02001607    1.00   0.13  0.00  0.00  0.87  0.00  0.00  0.00  0.00  0.00
  YS02001607YS02001610    1.00   0.13  0.00  0.00  0.87  0.00  0.00  0.00  0.00  0.00
  YS02001610YS02001613    1.00   0.13  0.00  0.00  0.87  0.00  0.00  0.00  0.00  0.00
  YS02001613YS02001616    1.00   0.13  0.00  0.00  0.87  0.00  0.00  0.00  0.00  0.00
  YS02001616YS02001619    1.00   0.13  0.00  0.00  0.87  0.00  0.00  0.00  0.00  0.00
  YS02001619YS02001622    1.00   0.13  0.00  0.00  0.87  0.00  0.00  0.00  0.23  0.00
  YS02001622YS02001625    1.00   0.13  0.00  0.00  0.87  0.00  0.00  0.00  0.00  0.00
  YS02001625YS02001629    1.00   0.13  0.01  0.00  0.33  0.00  0.54  0.00  0.00  0.00
  YS02001629YS02163301    1.00   0.13  0.00  0.00  0.87  0.00  0.00  0.00  0.00  0.00
  YS02001633YS02163601    1.00   0.00  0.01  0.00  0.99  0.00  0.00  0.00  0.12  0.00
  YS02001641YS02001644    1.00   0.00  0.01  0.00  0.99  0.00  0.00  0.00  0.00  0.00
  YS02001644YS02001647    1.00   0.00  0.13  0.00  0.87  0.00  0.00  0.00  0.00  0.00
  YS02001647YS02001649    1.00   0.00  0.13  0.00  0.66  0.21  0.00  0.00  0.52  0.00
  YS02001649YS02001757    1.00   0.00  0.00  0.00  0.78  0.22  0.00  0.00  0.31  0.00
  YS02001652YS02001649    1.00   0.00  0.00  0.00  0.99  0.00  0.00  0.00  0.61  0.00
  YS02001655YS02001652    1.00   0.00  0.00  0.00  0.35  0.01  0.00  0.64  0.02  0.00
  YS02001658YS02001655    1.00   0.00  0.13  0.00  0.83  0.04  0.00  0.00  0.54  0.00
  YS02001661YS02001658    1.00   0.13  0.00  0.00  0.69  0.18  0.00  0.00  0.58  0.00
  YS02001664YS02001661    1.00   0.13  0.00  0.00  0.84  0.04  0.00  0.00  0.67  0.00
  YS02001745YS02001748    1.00   0.00  0.00  0.00  0.31  0.00  0.00  0.69  0.05  0.00
  YS02001748YS02001751    1.00   0.00  0.00  0.00  0.97  0.03  0.00  0.00  0.66  0.00
  YS02001751YS02001754    1.00   0.00  0.00  0.00  0.35  0.00  0.00  0.64  0.02  0.00
  YS02001754YS02001757    1.00   0.00  0.00  0.00  1.00  0.00  0.00  0.00  0.63  0.00
  YS02001757CaochengTiaoxuchi    1.00   0.00  0.00  0.00  0.98  0.02  0.00  0.00  0.61  0.00
  YS02001759YS02001757    1.00   0.00  0.00  0.00  0.99  0.01  0.00  0.00  0.54  0.00
  YS02001762YS02001759    1.00   0.00  0.00  0.00  1.00  0.00  0.00  0.00  0.01  0.00
  YS02001765YS02001762    1.00   0.00  0.00  0.00  1.00  0.00  0.00  0.00  0.59  0.00
  YS02001767YS02001765    1.00   0.00  0.00  0.00  1.00  0.00  0.00  0.00  0.00  0.00
  YS02001770YS02001767    1.00   0.00  0.00  0.00  1.00  0.00  0.00  0.00  0.00  0.00
  YS02001774YS02001770    1.00   0.00  0.12  0.00  0.74  0.00  0.14  0.00  0.00  0.00
  YS02001779YS02001774    1.00   0.00  0.00  0.00  1.00  0.00  0.00  0.00  0.63  0.00
  YS02001783YS02001784    1.00   0.00  0.13  0.00  0.87  0.00  0.00  0.00  0.52  0.00
  YS02001784YS02001785    1.00   0.00  0.00  0.00  1.00  0.00  0.00  0.00  0.12  0.00
  YS02001786YS02001788    1.00   0.00  0.00  0.00  0.89  0.11  0.00  0.00  0.00  0.00
  YS02001788YS02001790    1.00   0.00  0.00  0.00  0.26  0.74  0.00  0.00  0.72  0.00
  YS02001790YS02001791    1.00   0.00  0.00  0.00  0.01  0.99  0.00  0.00  0.10  0.00
  YS02001791YS02001793    1.00   0.00  0.00  0.00  0.00  1.00  0.00  0.00  0.04  0.00
  YS02001793JiankangQianchi    1.00   0.00  0.00  0.00  0.87  0.13  0.00  0.00  0.84  0.00
  YS02001882YS02001884    1.00   0.13  0.00  0.00  0.87  0.00  0.00  0.00  0.00  0.00
  YS02001884YS02001887    1.00   0.06  0.05  0.00  0.89  0.00  0.00  0.00  0.00  0.00
  YS02001887YS02001890    1.00   0.00  0.00  0.00  0.97  0.00  0.03  0.00  0.00  0.00
  YS02001890YS02001895    1.00   0.00  0.13  0.00  0.87  0.00  0.00  0.00  0.00  0.00
  YS02001895YS02001898    1.00   0.13  0.00  0.00  0.86  0.00  0.00  0.00  0.00  0.00
  YS02001898YS02001901    1.00   0.13  0.00  0.00  0.87  0.00  0.00  0.00  0.00  0.00
  YS02001901YS02001904    1.00   0.13  0.00  0.00  0.87  0.00  0.00  0.00  0.00  0.00
  YS02001904YS02001907    1.00   0.00  0.13  0.00  0.87  0.00  0.00  0.00  0.00  0.00
  YS02001907YS02006553    1.00   0.00  0.02  0.00  0.98  0.00  0.00  0.00  0.00  0.00
  YS02001910YS02001907    1.00   0.00  0.00  0.00  0.97  0.00  0.00  0.03  0.10  0.00
  YS02001915YS02001910    1.00   0.00  0.00  0.00  0.98  0.02  0.00  0.00  0.10  0.00
  YS02001918YS02001915    1.00   0.00  0.01  0.00  0.98  0.02  0.00  0.00  0.61  0.00
  YS02001920YS02001918    1.00   0.00  0.01  0.00  0.99  0.00  0.00  0.00  0.00  0.00
  YS02001923YS02001920    1.00   0.00  0.00  0.00  1.00  0.00  0.00  0.00  0.74  0.00
  YS02001926YS02001923    1.00   0.00  0.07  0.00  0.25  0.00  0.68  0.00  0.00  0.00
  YS02001929YS02001926    1.00   0.00  0.13  0.00  0.87  0.00  0.00  0.00  0.62  0.00
  YS02006553YS02006556    1.00   0.01  0.00  0.00  0.99  0.00  0.00  0.00  0.03  0.00
  YS02006556YS02006558    1.00   0.00  0.00  0.00  1.00  0.00  0.00  0.00  0.00  0.00
  YS02006558YS02006561    1.00   0.13  0.00  0.00  0.25  0.62  0.00  0.00  0.12  0.00
  YS02006561YS02001783    1.00   0.13  0.00  0.00  0.26  0.61  0.00  0.00  0.59  0.00
  YS02163301YS02001633    1.00   0.00  0.13  0.00  0.87  0.00  0.00  0.00  0.00  0.00
  YS02163601YS02164001    1.00   0.00  0.08  0.00  0.92  0.00  0.00  0.00  0.00  0.00
  YS02164001YS02001641    1.00   0.01  0.07  0.00  0.92  0.00  0.00  0.00  0.05  0.00
  
  
  *************************
  Conduit Surcharge Summary
  *************************
  
  ----------------------------------------------------------------------------
                                                           Hours        Hours 
                         --------- Hours Full --------   Above Full   Capacity
  Conduit                Both Ends  Upstream  Dnstream   Normal Flow   Limited
  ----------------------------------------------------------------------------
  WS02003072WS02003073        0.01      0.01      0.01      1.96         0.01
  WS02004403WS02004404        0.01      0.01      0.05      0.01         0.01
  WS02004404WS02004405        0.01      0.05      0.01      3.58         0.01
  WS02004405WS02004406        0.01      0.01      0.01      1.20         0.01
  WS02006109WS02006110        1.30      1.30      3.12      1.42         0.01
  WS02006110WS02006113        0.01      0.01      3.07      0.01         0.01
  WS02006111WS02006112        0.01      0.01      3.31      0.01         0.01
  WS02006112WS02006115        0.01      0.01      1.51      0.01         0.01
  WS02006228WS02006109        3.02      3.12      3.02      3.39         3.02
  WS02006229WS02006228        3.01      3.02      3.01      3.29         3.00
  WS02006230WS02006229        3.18      3.26      3.18      4.09         3.18
  WS02006231WS02006230        1.32      1.32      1.52      3.75         0.01
  WS02006232WS02006231        1.46      1.46      3.13      1.56         0.01
  WS02006234WS02006232        2.95      2.95      3.13      1.53         1.52
  WS02006235WS02006234        1.94      1.95      2.98      3.65         0.02
  WS02006238WS02006235        3.02      3.02      3.14      0.01         0.01
  WS02006239WS02006238        3.07      3.12      3.08      3.22         2.72
  WS02006240WS02006239        3.03      3.06      3.03      3.22         2.50
  WS02006242WS02006240        3.05      3.05      3.18      3.35         0.01
  WS02006243WS02006242        3.07      3.07      3.14      0.01         0.06
  WS02006245WS02006243        3.06      3.07      3.06      1.89         2.00
  WS02006247WS02006245        3.06      3.09      3.06      3.54         3.05
  WS02006248WS02006247        3.06      3.06      3.08      0.01         0.07
  WS02006249WS02006248        3.04      3.05      3.06      3.53         0.01
  WS02006251WS02006249        3.06      3.07      3.06      3.28         2.95
  WS02006252WS02006251        3.35      3.35      3.38      3.35         0.01
  WS02006256WS02006235        3.65      3.69      7.09      1.78         0.01
  YS02001580YS02001583        2.08      2.08      2.11      0.01         0.01
  YS02001583YS02001586        2.08      2.08      2.17      0.01         0.01
  YS02001586YS02001590        2.17      2.17      2.22      0.01         0.01
  YS02001590YS02001593        2.22      2.22      2.23      2.25         0.01
  YS02001593YS02001596        2.23      2.23      2.28      0.01         0.01
  YS02001596YS02001600        2.30      2.30      2.37      0.01         0.01
  YS02001600YS02001601        2.40      2.40      2.55      0.01         0.01
  YS02001601YS02001602        2.51      2.51      2.57      2.30         0.01
  YS02001602YS02001605        2.49      2.49      2.51      3.00         0.01
  YS02001605YS02001607        2.47      2.49      2.49      2.40         2.36
  YS02001607YS02001610        2.24      2.24      2.26      0.01         0.01
  YS02001610YS02001613        2.24      2.24      2.26      0.01         0.01
  YS02001613YS02001616        2.21      2.21      2.24      0.01         0.01
  YS02001616YS02001619        2.20      2.20      2.21      0.01         0.06
  YS02001619YS02001622        2.20      2.20      2.21      2.13         2.00
  YS02001622YS02001625        2.21      2.21      2.35      0.01         0.01
  YS02001625YS02001629        2.18      2.18      2.35      0.01         0.01
  YS02001629YS02163301        2.36      2.36      2.38      0.01         0.07
  YS02001633YS02163601        2.40      2.40      2.44      0.22         0.21
  YS02001641YS02001644        2.40      2.41      2.40      2.62         2.10
  YS02001644YS02001647        2.28      2.28      2.40      0.02         0.01
  YS02001647YS02001649        2.28      2.28      2.40      0.01         0.01
  YS02001649YS02001757        2.40      2.40      2.48      0.32         0.28
  YS02001652YS02001649        2.27      2.27      2.40      0.01         0.01
  YS02001655YS02001652        1.97      1.97      2.24      0.01         0.01
  YS02001658YS02001655        1.63      1.63      1.97      0.01         0.01
  YS02001661YS02001658        0.12      0.12      1.63      0.01         0.01
  YS02001664YS02001661        0.01      0.01      0.51      0.01         0.01
  YS02001745YS02001748        0.01      0.01      1.50      0.01         0.01
  YS02001748YS02001751        1.59      1.59      1.83      0.01         0.01
  YS02001751YS02001754        1.83      1.83      2.09      0.01         0.01
  YS02001754YS02001757        2.18      2.18      2.48      0.01         0.01
  YS02001757CaochengTiaoxuchi        2.35      2.48      2.87      0.84         0.71
  YS02001759YS02001757        2.41      2.41      2.48      0.01         0.02
  YS02001762YS02001759        2.38      2.38      2.41      0.01         0.04
  YS02001765YS02001762        2.34      2.34      2.38      0.01         0.01
  YS02001767YS02001765        2.31      2.31      2.34      0.03         0.06
  YS02001770YS02001767        2.31      2.31      2.31      2.00         1.76
  YS02001774YS02001770        2.29      2.29      2.36      0.01         0.01
  YS02001779YS02001774        2.08      2.08      2.36      0.01         0.01
  YS02001783YS02001784        2.00      2.01      2.00      2.07         2.00
  YS02001784YS02001785        1.94      2.00      1.94      2.14         1.94
  YS02001786YS02001788        0.01      1.94      0.01      2.11         0.01
  YS02001790YS02001791        0.01      0.01      0.01      2.00         0.01
  YS02001793JiankangQianchi        0.01      0.01      6.95      0.01         0.01
  YS02001882YS02001884        1.99      1.99      1.99      0.01         0.01
  YS02001884YS02001887        2.00      2.00      2.01      0.01         0.01
  YS02001887YS02001890        2.02      2.02      2.02      0.15         0.01
  YS02001890YS02001895        1.98      1.98      2.03      0.01         0.01
  YS02001895YS02001898        1.97      1.97      1.98      0.02         0.01
  YS02001898YS02001901        1.98      1.98      2.00      0.01         0.01
  YS02001901YS02001904        2.00      2.00      2.00      0.01         0.01
  YS02001904YS02001907        2.00      2.00      2.11      0.01         0.01
  YS02001907YS02006553        2.15      2.15      2.16      0.01         0.01
  YS02001910YS02001907        2.03      2.03      2.10      0.01         0.01
  YS02001915YS02001910        1.98      1.98      2.03      0.01         0.01
  YS02001918YS02001915        1.87      1.87      1.98      0.01         0.01
  YS02001920YS02001918        1.87      1.87      1.92      0.01         0.01
  YS02001923YS02001920        1.78      1.78      1.92      0.01         0.01
  YS02001926YS02001923        0.01      0.01      0.10      0.01         0.01
  YS02001929YS02001926        0.01      0.01      0.10      0.01         0.01
  YS02006553YS02006556        2.07      2.07      2.11      0.01         0.01
  YS02006556YS02006558        2.09      2.09      2.11      0.01         0.01
  YS02006558YS02006561        1.96      2.06      1.96      2.13         1.96
  YS02006561YS02001783        1.80      1.80      2.01      0.01         0.01
  YS02163301YS02001633        2.38      2.38      2.41      0.01         0.01
  YS02163601YS02164001        2.39      2.39      2.44      0.08         0.01
  YS02164001YS02001641        2.39      2.39      2.41      0.46         0.48
  
  
  ***************
  Pumping Summary
  ***************
  
  ---------------------------------------------------------------------------------------------------------
                                                  Min       Avg       Max     Total     Power    % Time Off
                        Percent   Number of      Flow      Flow      Flow    Volume     Usage    Pump Curve
  Pump                 Utilized   Start-Ups       LPS       LPS       LPS  10^6 ltr     Kw-hr    Low   High
  ---------------------------------------------------------------------------------------------------------
  CC-R1                   39.58          18      0.00    683.00    683.00     7.785    153.44    0.0   55.2
  CC-R2                   37.88          16      0.00    683.00    683.00     7.451    146.75    0.0   61.1
  CC-S1                   44.09          16      0.00    200.00    200.00     2.539     11.81    0.0   38.6
  CC-S2                   43.70          21      0.00    200.00    200.00     2.517     11.70    0.0   38.9
  JK-R1                   13.74          24      0.00   1000.00   1000.00     3.956     42.10    0.0    0.0
  JK-R2                   11.75          15      0.00   1000.00   1000.00     3.383     36.27    0.0    0.0
  JK-S                    21.85          38      0.00    300.00    300.00     1.888     28.05    0.0    0.0
  

  Analysis begun on:  Thu Feb 27 17:17:07 2025
  Analysis ended on:  Thu Feb 27 17:17:09 2025
  Total elapsed time: 00:00:02