
  EPA STORM WATER MANAGEMENT MODEL - VERSION 5.2 (Build 5.2.4)
  PYSWMM TOOLKIT API - VERSION v1.0 (2023-11-27)
  ------------------------------------------------------------

  WARNING 04: minimum elevation drop used for Conduit WS02004404WS02004405
  WARNING 03: negative offset ignored for Link YS02001904YS02001907
  
  ****************
  Analysis Options
  ****************
  Flow Units ............... LPS
  Process Models:
    Rainfall/Runoff ........ YES
    RDII ................... NO
    Snowmelt ............... NO
    Groundwater ............ NO
    Flow Routing ........... YES
    Ponding Allowed ........ NO
    Water Quality .......... NO
  Infiltration Method ...... HORTON
  Flow Routing Method ...... DYNWAVE
  Surcharge Method ......... EXTRAN
  Starting Date ............ 08/28/2015 08:00:00
  Ending Date .............. 08/28/2015 16:00:00
  Antecedent Dry Days ...... 8.0
  Report Time Step ......... 00:01:00
  Wet Time Step ............ 00:01:00
  Dry Time Step ............ 00:01:00
  Routing Time Step ........ 30.00 sec
  Variable Time Step ....... YES
  Maximum Trials ........... 8
  Number of Threads ........ 4
  Head Tolerance ........... 0.001500 m
  
  
  **************************        Volume         Depth
  Runoff Quantity Continuity     hectare-m            mm
  **************************     ---------       -------
  Total Precipitation ......         3.386       102.090
  Evaporation Loss .........         0.000         0.000
  Infiltration Loss ........         0.106         3.188
  Surface Runoff ...........         3.248        97.926
  Final Storage ............         0.033         0.997
  Continuity Error (%) .....        -0.021
  
  
  **************************        Volume        Volume
  Flow Routing Continuity        hectare-m      10^6 ltr
  **************************     ---------     ---------
  Dry Weather Inflow .......         0.025         0.251
  Wet Weather Inflow .......         3.248        32.481
  Groundwater Inflow .......         0.000         0.000
  RDII Inflow ..............         0.000         0.000
  External Inflow ..........         0.083         0.834
  External Outflow .........         1.842        18.418
  Flooding Loss ............         1.498        14.976
  Evaporation Loss .........         0.000         0.000
  Exfiltration Loss ........         0.000         0.000
  Initial Stored Volume ....         0.243         2.431
  Final Stored Volume ......         0.262         2.618
  Continuity Error (%) .....        -0.042
  
  
  *************************
  Highest Continuity Errors
  *************************
  Node YS02001884 (4.96%)
  Node YS02001583 (-3.14%)
  
  
  ***************************
  Time-Step Critical Elements
  ***************************
  Link WS02006252WS02006251 (51.00%)
  Link WS02006238WS02006235 (15.00%)
  Link YS02001791YS02001793 (7.75%)
  Link WS02004404WS02004405 (7.41%)
  Link WS02006235WS02006234 (6.39%)
  
  
  ********************************
  Highest Flow Instability Indexes
  ********************************
  Link WS02006113WS02006111 (44)
  Link WS02006111WS02006112 (22)
  Link WS02004404WS02004405 (18)
  Link WS02006252WS02006251 (17)
  Link WS02006238WS02006235 (17)
  
  
  *********************************
  Most Frequent Nonconverging Nodes
  *********************************
  Node CC-1 (11.32%)
  Node CC-2 (11.32%)
  Node JK-1 (11.32%)
  Node JK-2 (11.32%)
  Node WSC (11.32%)
  
  
  *************************
  Routing Time Step Summary
  *************************
  Minimum Time Step           :     0.00 sec
  Average Time Step           :     1.70 sec
  Maximum Time Step           :     7.04 sec
  % of Time in Steady State   :     0.00
  Average Iterations per Step :     3.07
  % of Steps Not Converging   :    11.32
  Time Step Frequencies       :
     30.000 - 13.228 sec      :     0.00 %
     13.228 -  5.833 sec      :     2.71 %
      5.833 -  2.572 sec      :    19.52 %
      2.572 -  1.134 sec      :    21.71 %
      1.134 -  0.500 sec      :    56.05 %
  
  
  ***************************
  Subcatchment Runoff Summary
  ***************************
  
  ------------------------------------------------------------------------------------------------------------------------------
                            Total      Total      Total      Total     Imperv       Perv      Total       Total     Peak  Runoff
                           Precip      Runon       Evap      Infil     Runoff     Runoff     Runoff      Runoff   Runoff   Coeff
  Subcatchment                 mm         mm         mm         mm         mm         mm         mm    10^6 ltr      LPS
  ------------------------------------------------------------------------------------------------------------------------------
  sub60                    102.09       0.00       0.00       1.89      88.64      10.36      99.01        1.30   881.13   0.970
  sub61                    102.09       0.00       0.00       2.75      83.61      14.61      98.22        1.80  1226.87   0.962
  sub62                    102.09       0.00       0.00       1.26      92.64       6.91      99.55        2.73  1732.45   0.975
  sub63                    102.09       0.00       0.00       5.09      71.52      24.52      96.04        2.18  1413.80   0.941
  sub64                    102.09       0.00       0.00       2.57      85.57      12.74      98.32        2.36  1438.25   0.963
  sub65                    102.09       0.00       0.00       2.23      87.57      11.05      98.62        2.71  1617.96   0.966
  sub66                    102.09       0.00       0.00       6.36      71.41      23.25      94.66        4.41  2240.02   0.927
  sub67                    102.09       0.00       0.00       1.21      92.69       6.96      99.65        1.85  1307.20   0.976
  sub68                    102.09       0.00       0.00       2.28      86.62      12.02      98.64        2.71  1777.95   0.966
  sub69                    102.09       0.00       0.00       2.07      86.67      13.25      99.92        3.70  2152.83   0.979
  sub70                    102.09       0.00       0.00       6.96      67.21      27.75      94.97        2.74  1262.47   0.930
  sub71                    102.09       0.00       0.00       1.30      92.60       6.87      99.47        2.60  1554.10   0.974
  sub72                    102.09       0.00       0.00       1.15      93.54       5.99      99.53        1.37   767.15   0.975
  
  
  ******************
  Node Depth Summary
  ******************
  
  ---------------------------------------------------------------------------------
                                 Average  Maximum  Maximum  Time of Max    Reported
                                   Depth    Depth      HGL   Occurrence   Max Depth
  Node                 Type       Meters   Meters   Meters  days hr:min      Meters
  ---------------------------------------------------------------------------------
  WS02003060           JUNCTION     0.23     0.38     5.32     0  02:22        0.38
  WS02003066           JUNCTION     0.19     0.30     5.85     0  02:22        0.30
  WS02003067           JUNCTION     0.50     0.70     6.02     0  02:21        0.70
  WS02003069           JUNCTION     0.26     0.43     5.02     0  02:23        0.43
  WS02003072           JUNCTION     0.32     0.50     4.87     0  02:24        0.50
  WS02003073           JUNCTION     0.18     0.30     4.36     0  02:24        0.30
  WS02004401           JUNCTION     0.59     0.88     6.88     0  02:19        0.88
  WS02004402           JUNCTION     0.62     0.91     6.87     0  02:18        0.90
  WS02004403           JUNCTION     0.64     0.92     6.85     0  02:18        0.92
  WS02004404           JUNCTION     0.72     1.04     6.89     0  02:18        1.00
  WS02004405           JUNCTION     0.71     0.97     6.82     0  02:18        0.97
  WS02004406           JUNCTION     0.72     0.96     6.79     0  02:19        0.96
  WS02004407           JUNCTION     0.17     0.30     6.61     0  02:20        0.30
  WS02004409           JUNCTION     0.38     0.67     6.44     0  02:20        0.67
  WS02004410           JUNCTION     0.41     0.68     6.40     0  02:20        0.68
  WS02004411           JUNCTION     0.43     0.69     6.37     0  02:21        0.69
  WS02004412           JUNCTION     0.45     0.70     6.34     0  02:22        0.70
  WS02004413           JUNCTION     0.61     0.86     6.33     0  02:21        0.86
  WS02006109           JUNCTION     0.63     1.45     8.07     0  02:50        0.99
  WS02006110           JUNCTION     0.64     1.47     8.06     0  02:50        0.94
  WS02006111           JUNCTION     0.17     0.29     6.99     0  03:03        0.29
  WS02006112           JUNCTION     0.74     1.08     6.97     0  02:14        1.08
  WS02006113           JUNCTION     0.26     0.46     7.35     0  03:18        0.46
  WS02006115           JUNCTION     0.47     0.78     6.92     0  02:19        0.77
  WS02006116           JUNCTION     0.56     0.86     6.90     0  02:19        0.86
  WS02006228           JUNCTION     0.62     1.76     8.41     0  02:50        1.03
  WS02006229           JUNCTION     0.59     1.85     8.55     0  02:50        1.08
  WS02006230           JUNCTION     0.59     2.31     9.05     0  02:50        1.16
  WS02006231           JUNCTION     0.40     1.66     8.79     0  02:50        0.95
  WS02006232           JUNCTION     0.53     1.73     8.77     0  02:50        1.14
  WS02006234           JUNCTION     0.45     1.52     8.68     0  02:50        1.14
  WS02006235           JUNCTION     0.49     1.67     8.83     0  01:57        1.34
  WS02006238           JUNCTION     0.52     1.71     8.85     0  01:57        1.45
  WS02006239           JUNCTION     0.49     1.73     8.94     0  01:58        1.73
  WS02006240           JUNCTION     0.46     1.81     9.10     0  01:58        1.81
  WS02006242           JUNCTION     0.53     1.55     8.82     0  01:57        1.55
  WS02006243           JUNCTION     0.44     1.48     8.90     0  01:58        1.48
  WS02006245           JUNCTION     0.45     1.56     9.04     0  01:58        1.56
  WS02006247           JUNCTION     0.48     1.47     8.97     0  01:58        1.47
  WS02006248           JUNCTION     0.44     1.10     8.69     0  01:57        1.10
  WS02006249           JUNCTION     0.48     1.09     8.69     0  01:53        1.09
  WS02006251           JUNCTION     0.48     1.34     9.01     0  01:53        1.23
  WS02006252           JUNCTION     0.36     1.50     9.74     0  00:00        0.91
  WS02006256           JUNCTION     0.92     2.35     9.28     0  00:00        2.35
  WSF200               JUNCTION     0.17     0.29     5.53     0  02:22        0.29
  YS02001580           JUNCTION     0.10     1.05     9.59     0  01:53        1.05
  YS02001583           JUNCTION     0.14     1.14     9.64     0  01:53        1.14
  YS02001586           JUNCTION     0.21     1.13     9.30     0  01:53        1.13
  YS02001590           JUNCTION     0.30     1.38     9.24     0  02:26        1.38
  YS02001593           JUNCTION     0.24     1.30     9.16     0  01:58        1.30
  YS02001596           JUNCTION     0.33     1.78     9.20     0  02:57        1.78
  YS02001600           JUNCTION     0.39     1.87     9.00     0  02:16        1.87
  YS02001601           JUNCTION     0.57     2.06     8.90     0  01:52        2.06
  YS02001602           JUNCTION     0.48     1.87     8.77     0  01:56        1.87
  YS02001605           JUNCTION     0.45     1.78     8.68     0  01:58        1.78
  YS02001607           JUNCTION     0.45     1.65     8.50     0  01:58        1.65
  YS02001610           JUNCTION     0.49     1.68     8.48     0  01:57        1.68
  YS02001613           JUNCTION     0.45     1.67     8.51     0  02:20        1.67
  YS02001616           JUNCTION     0.38     1.61     8.52     0  02:09        1.61
  YS02001619           JUNCTION     0.36     1.61     8.54     0  02:09        1.61
  YS02001622           JUNCTION     0.35     1.59     8.49     0  02:16        1.59
  YS02001625           JUNCTION     0.62     1.78     8.38     0  01:57        1.78
  YS02001629           JUNCTION     0.47     1.85     8.40     0  02:00        1.85
  YS02001633           JUNCTION     0.55     2.08     8.53     0  02:40        2.05
  YS02001641           JUNCTION     0.54     2.08     8.52     0  02:40        1.96
  YS02001644           JUNCTION     0.54     1.92     8.35     0  02:00        1.92
  YS02001647           JUNCTION     0.33     1.80     8.41     0  02:00        1.79
  YS02001649           JUNCTION     0.38     2.05     8.44     0  02:13        2.04
  YS02001652           JUNCTION     0.28     2.03     8.62     0  02:00        1.95
  YS02001655           JUNCTION     0.22     1.82     8.67     0  02:13        1.81
  YS02001658           JUNCTION     0.17     1.64     8.78     0  02:13        1.64
  YS02001661           JUNCTION     0.18     1.49     8.89     0  02:13        1.49
  YS02001664           JUNCTION     0.06     1.08     9.01     0  02:13        1.08
  YS02001745           JUNCTION     0.09     1.08     8.59     0  02:13        1.06
  YS02001748           JUNCTION     0.16     1.47     8.55     0  02:13        1.46
  YS02001751           JUNCTION     0.20     1.63     8.51     0  02:13        1.62
  YS02001754           JUNCTION     0.25     1.85     8.46     0  02:13        1.85
  YS02001757           JUNCTION     0.41     2.15     8.41     0  02:13        2.15
  YS02001759           JUNCTION     0.35     2.13     8.50     0  02:12        2.13
  YS02001762           JUNCTION     0.34     2.09     8.49     0  02:12        2.09
  YS02001765           JUNCTION     0.32     2.03     8.48     0  02:12        2.03
  YS02001767           JUNCTION     0.32     1.98     8.47     0  02:12        1.98
  YS02001770           JUNCTION     0.33     1.95     8.44     0  02:09        1.95
  YS02001774           JUNCTION     0.40     2.00     8.43     0  02:32        2.00
  YS02001779           JUNCTION     0.24     1.68     8.37     0  01:57        1.68
  YS02001783           JUNCTION     0.24     1.26     7.40     0  02:12        1.25
  YS02001784           JUNCTION     0.25     1.14     7.20     0  02:11        1.13
  YS02001786           JUNCTION     0.21     0.89     6.92     0  02:12        0.88
  YS02001788           JUNCTION     0.15     0.63     6.60     0  02:11        0.62
  YS02001790           JUNCTION     0.18     0.73     6.37     0  02:13        0.72
  YS02001791           JUNCTION     0.11     0.45     5.92     0  02:13        0.43
  YS02001793           JUNCTION     0.06     0.30     5.13     0  02:21        0.29
  YS02001882           JUNCTION     0.31     1.83     8.55     0  02:32        1.83
  YS02001884           JUNCTION     0.41     1.88     8.50     0  02:32        1.88
  YS02001887           JUNCTION     0.48     1.89     8.42     0  02:12        1.87
  YS02001890           JUNCTION     0.51     1.81     8.32     0  02:00        1.81
  YS02001895           JUNCTION     0.28     1.62     8.37     0  02:32        1.62
  YS02001898           JUNCTION     0.29     1.68     8.41     0  02:32        1.68
  YS02001901           JUNCTION     0.40     1.78     8.39     0  02:32        1.78
  YS02001904           JUNCTION     0.38     1.71     8.34     0  02:32        1.71
  YS02001907           JUNCTION     0.71     1.96     8.25     0  02:00        1.96
  YS02001910           JUNCTION     0.51     2.01     8.52     0  02:12        2.01
  YS02001915           JUNCTION     0.32     2.00     8.72     0  02:11        2.00
  YS02001918           JUNCTION     0.18     1.73     8.80     0  02:11        1.72
  YS02001920           JUNCTION     0.26     1.83     8.83     0  02:11        1.82
  YS02001923           JUNCTION     0.14     1.61     8.87     0  02:11        1.60
  YS02001926           JUNCTION     0.17     1.45     8.90     0  02:11        1.44
  YS02001929           JUNCTION     0.10     1.30     9.00     0  02:00        1.23
  YS02006553           JUNCTION     0.71     1.99     8.27     0  02:11        1.99
  YS02006556           JUNCTION     0.69     1.99     8.30     0  02:12        1.99
  YS02006558           JUNCTION     0.73     2.05     8.32     0  02:12        2.05
  YS02006561           JUNCTION     0.15     0.93     7.59     0  02:13        0.93
  YS02163301           JUNCTION     0.49     1.97     8.49     0  02:40        1.96
  YS02163601           JUNCTION     0.59     2.08     8.48     0  02:00        2.08
  YS02164001           JUNCTION     0.53     2.10     8.56     0  02:40        2.00
  CC-1                 OUTFALL      0.00     0.00     0.00     0  00:00        0.00
  CC-2                 OUTFALL      0.00     0.00     0.00     0  00:00        0.00
  JK-1                 OUTFALL      0.00     0.00     0.00     0  00:00        0.00
  JK-2                 OUTFALL      0.00     0.00     0.00     0  00:00        0.00
  WSC                  OUTFALL      0.18     0.30     0.97     0  02:24        0.30
  CC-storage           STORAGE      1.01     1.99     7.49     0  02:41        1.99
  JK-storage           STORAGE      3.19     4.24     5.04     0  02:21        4.20
  
  
  *******************
  Node Inflow Summary
  *******************
  
  -------------------------------------------------------------------------------------------------
                                  Maximum  Maximum                  Lateral       Total        Flow
                                  Lateral    Total  Time of Max      Inflow      Inflow     Balance
                                   Inflow   Inflow   Occurrence      Volume      Volume       Error
  Node                 Type           LPS      LPS  days hr:min    10^6 ltr    10^6 ltr     Percent
  -------------------------------------------------------------------------------------------------
  WS02003060           JUNCTION     16.53   556.97     0  02:22       0.476         6.1       0.044
  WS02003066           JUNCTION      0.00   540.00     0  02:22           0        5.62       0.026
  WS02003067           JUNCTION      0.00   539.90     0  02:21           0        5.63       0.078
  WS02003069           JUNCTION      0.32   556.89     0  02:23     0.00922         6.1       0.075
  WS02003072           JUNCTION      0.00   556.48     0  02:23           0         6.1       0.129
  WS02003073           JUNCTION      1.82   558.19     0  02:24      0.0524        6.14       0.112
  WS02004401           JUNCTION      0.00   542.70     0  02:19           0        5.76       0.276
  WS02004402           JUNCTION      0.00   541.17     0  02:19           0        5.74       0.264
  WS02004403           JUNCTION      0.00   541.62     0  02:20           0        5.72       0.243
  WS02004404           JUNCTION      0.16   561.06     0  02:21     0.00467        5.72       0.186
  WS02004405           JUNCTION      0.04   608.83     0  02:18      0.0011        5.71       0.204
  WS02004406           JUNCTION      0.00   547.72     0  02:19           0        5.69       0.468
  WS02004407           JUNCTION      0.00   541.87     0  02:19           0        5.67       0.060
  WS02004409           JUNCTION      0.00   541.01     0  02:20           0        5.66       0.084
  WS02004410           JUNCTION      0.00   540.74     0  02:20           0        5.66       0.093
  WS02004411           JUNCTION      0.00   540.41     0  02:20           0        5.65       0.108
  WS02004412           JUNCTION      0.00   540.26     0  02:21           0        5.65       0.141
  WS02004413           JUNCTION      0.00   540.30     0  02:21           0        5.64       0.246
  WS02006109           JUNCTION      1.23   564.31     0  01:58      0.0354        5.86       0.289
  WS02006110           JUNCTION      0.00   565.90     0  01:58           0        5.84       0.304
  WS02006111           JUNCTION      0.00   560.97     0  03:50           0        5.81       0.081
  WS02006112           JUNCTION      0.00   543.81     0  02:19           0        5.81       0.455
  WS02006113           JUNCTION      0.00   572.63     0  02:50           0        5.82       0.158
  WS02006115           JUNCTION      0.00   553.21     0  02:37           0        5.78       0.262
  WS02006116           JUNCTION      0.00   541.20     0  02:08           0        5.77       0.216
  WS02006228           JUNCTION      0.00   562.24     0  02:50           0        5.83       0.175
  WS02006229           JUNCTION      0.00   561.76     0  02:50           0        5.85       0.216
  WS02006230           JUNCTION     10.28   594.23     0  02:21       0.296        5.85       0.163
  WS02006231           JUNCTION      0.00   582.70     0  01:57           0        5.56       0.098
  WS02006232           JUNCTION      0.00   581.36     0  01:57           0        5.59       0.401
  WS02006234           JUNCTION      0.00   574.17     0  01:57           0        5.58      -0.089
  WS02006235           JUNCTION      0.00   562.76     0  02:41           0        5.64       0.338
  WS02006238           JUNCTION      0.00   424.16     0  02:45           0        4.65      -0.223
  WS02006239           JUNCTION      0.00   423.34     0  02:45           0        4.63      -0.069
  WS02006240           JUNCTION      0.00   422.16     0  03:15           0        4.62       0.092
  WS02006242           JUNCTION      0.00   422.22     0  03:15           0        4.62       0.274
  WS02006243           JUNCTION      0.00   421.86     0  03:15           0        4.62       0.310
  WS02006245           JUNCTION      0.00   420.84     0  03:15           0        4.64       0.563
  WS02006247           JUNCTION      0.00   421.88     0  03:15           0        4.64       0.060
  WS02006248           JUNCTION      0.00   421.99     0  03:15           0        4.65       0.111
  WS02006249           JUNCTION      0.00   464.59     0  01:30           0        4.91       0.538
  WS02006251           JUNCTION      0.08   406.30     0  01:53     0.00222        4.91      -0.043
  WS02006252           JUNCTION      0.00   400.00     0  00:00           0        4.91      -0.074
  WS02006256           JUNCTION      0.00   300.00     0  00:00           0        1.47      -0.689
  WSF200               JUNCTION      0.00   540.08     0  02:22           0        5.62       0.010
  YS02001580           JUNCTION      0.00    68.64     0  01:52           0     0.00417       1.384
  YS02001583           JUNCTION      0.00   101.46     0  01:52           0      0.0159      -3.044
  YS02001586           JUNCTION   1262.47  1262.58     0  02:15        2.74        2.76       0.034
  YS02001590           JUNCTION      0.00   318.16     0  02:26           0        1.72      -0.019
  YS02001593           JUNCTION      0.00   318.01     0  02:00           0        1.73       0.004
  YS02001596           JUNCTION      0.00   318.10     0  02:26           0        1.72      -0.006
  YS02001600           JUNCTION      0.00   318.31     0  02:24           0        1.73       0.021
  YS02001601           JUNCTION   2152.83  2470.23     0  02:14         3.7        5.42       0.020
  YS02001602           JUNCTION      0.00   495.80     0  01:52           0        2.76       0.020
  YS02001605           JUNCTION      0.00   495.29     0  01:52           0        2.56       0.029
  YS02001607           JUNCTION      0.00   494.43     0  01:52           0        2.56       0.076
  YS02001610           JUNCTION      0.00   955.08     0  02:19           0        3.24       0.080
  YS02001613           JUNCTION      0.00   618.69     0  02:19           0        2.47       0.069
  YS02001616           JUNCTION      0.00   619.00     0  02:19           0        2.47       0.023
  YS02001619           JUNCTION   2240.02  2240.02     0  02:14        4.41         6.2       0.003
  YS02001622           JUNCTION      0.00  1053.94     0  02:15           0         5.3       0.002
  YS02001625           JUNCTION      0.00  1505.36     0  02:19           0        5.83       0.187
  YS02001629           JUNCTION      0.00   899.56     0  01:56           0           4       0.001
  YS02001633           JUNCTION   1618.16  1618.16     0  02:14        2.72        6.02       0.061
  YS02001641           JUNCTION      0.00  1251.69     0  01:56           0        5.33       0.054
  YS02001644           JUNCTION   1438.29  2826.66     0  02:13        2.36        7.87       0.043
  YS02001647           JUNCTION      0.00  1590.47     0  01:57           0        6.22       0.009
  YS02001649           JUNCTION      0.00  1781.27     0  01:58           0        8.22       0.002
  YS02001652           JUNCTION      0.00  1425.63     0  02:13           0        2.19      -0.046
  YS02001655           JUNCTION      0.15  1425.09     0  02:13     0.00443        2.19       0.015
  YS02001658           JUNCTION      0.00  1424.55     0  02:13           0        2.18      -0.038
  YS02001661           JUNCTION      0.00  1424.75     0  02:13           0        2.18      -0.001
  YS02001664           JUNCTION   1413.80  1413.80     0  02:13        2.18        2.18      -0.007
  YS02001745           JUNCTION    881.13   881.13     0  02:13         1.3         1.3       0.099
  YS02001748           JUNCTION      0.04   886.31     0  02:13      0.0013         1.3      -0.164
  YS02001751           JUNCTION      0.01   886.22     0  02:13    0.000317        1.31       0.008
  YS02001754           JUNCTION      0.26   888.17     0  02:13     0.00749        1.32      -0.094
  YS02001757           JUNCTION      0.00  2972.75     0  02:11           0          13       0.014
  YS02001759           JUNCTION   1226.91  1327.12     0  02:12         1.8        3.65      -0.008
  YS02001762           JUNCTION      0.00   679.12     0  02:04           0        1.84       0.001
  YS02001765           JUNCTION      0.00   679.68     0  02:04           0        1.84       0.025
  YS02001767           JUNCTION      0.54   679.51     0  02:04      0.0154        1.84       0.013
  YS02001770           JUNCTION   1732.60  1732.60     0  02:13        2.73        2.78      -0.011
  YS02001774           JUNCTION      0.00   852.05     0  02:17           0       0.752       0.116
  YS02001779           JUNCTION      0.01   851.69     0  02:15    0.000144       0.706      -0.020
  YS02001783           JUNCTION      0.00  1178.47     0  02:13           0        5.28       0.005
  YS02001784           JUNCTION      1.06  1178.86     0  02:13      0.0305        5.31       0.010
  YS02001786           JUNCTION      0.06  1179.41     0  02:13     0.00162        5.32       0.014
  YS02001788           JUNCTION      0.07  1180.51     0  02:13     0.00204        5.32       0.006
  YS02001790           JUNCTION      0.15  1189.25     0  02:11     0.00446        5.32       0.020
  YS02001791           JUNCTION      0.00  1295.25     0  02:13           0        5.32      -0.032
  YS02001793           JUNCTION      0.00  1269.39     0  02:13           0        5.32       0.003
  YS02001882           JUNCTION      0.00    31.92     0  01:56           0      0.0134       4.328
  YS02001884           JUNCTION      0.00    34.83     0  01:55           0      0.0498       5.218
  YS02001887           JUNCTION   1307.65  1307.65     0  02:13        1.87         1.9       0.234
  YS02001890           JUNCTION      0.00  1307.88     0  02:13           0        1.86       0.275
  YS02001895           JUNCTION      0.00   518.52     0  02:18           0         1.5       0.125
  YS02001898           JUNCTION      0.00   518.27     0  02:18           0         1.5       0.003
  YS02001901           JUNCTION      0.00   518.23     0  02:18           0         1.5       0.215
  YS02001904           JUNCTION      0.00   518.04     0  02:18           0         1.5       0.197
  YS02001907           JUNCTION      0.00  3115.51     0  02:13           0        5.67       0.320
  YS02001910           JUNCTION      0.00  1993.10     0  02:15           0        3.99       0.181
  YS02001915           JUNCTION   1554.12  2324.62     0  02:14         2.6        4.07       0.038
  YS02001918           JUNCTION      0.00   771.78     0  02:14           0        1.48       0.010
  YS02001920           JUNCTION      2.87   771.46     0  02:14      0.0827        1.47       0.066
  YS02001923           JUNCTION      0.04   767.21     0  02:14     0.00109        1.38      -0.009
  YS02001926           JUNCTION      0.05   767.98     0  02:14      0.0015        1.37       0.019
  YS02001929           JUNCTION    767.15   767.15     0  02:14        1.37        1.37      -0.026
  YS02006553           JUNCTION      0.00   800.83     0  02:34           0        2.96       0.408
  YS02006556           JUNCTION      0.00   800.43     0  02:35           0        2.97       0.277
  YS02006558           JUNCTION   1778.83  1778.83     0  02:13        2.74         5.5       0.065
  YS02006561           JUNCTION      0.00  1179.04     0  02:13           0        5.28      -0.001
  YS02163301           JUNCTION      0.00   900.37     0  01:56           0           4       0.045
  YS02163601           JUNCTION      0.11  1254.12     0  01:56     0.00317        5.32       0.096
  YS02164001           JUNCTION      0.00  1253.64     0  01:56           0        5.32       0.044
  CC-1                 OUTFALL       0.00   683.00     0  00:00           0        4.47       0.000
  CC-2                 OUTFALL       0.00   683.00     0  00:00           0        3.99       0.000
  JK-1                 OUTFALL       0.00  1000.00     0  00:00           0        2.63       0.000
  JK-2                 OUTFALL       0.00  1000.00     0  00:00           0        1.19       0.000
  WSC                  OUTFALL       0.00   558.09     0  02:24           0        6.14       0.000
  CC-storage           STORAGE       0.00  2971.70     0  02:12           0        15.2      -0.106
  JK-storage           STORAGE       0.00  1269.82     0  02:13           0        5.47       0.091
  
  
  **********************
  Node Surcharge Summary
  **********************
  
  Surcharging occurs when water rises above the top of the highest conduit.
  ---------------------------------------------------------------------
                                               Max. Height   Min. Depth
                                   Hours       Above Crown    Below Rim
  Node                 Type      Surcharged         Meters       Meters
  ---------------------------------------------------------------------
  WS02004404           JUNCTION        0.02          0.044        2.736
  WS02006109           JUNCTION        2.31          0.629        1.191
  WS02006110           JUNCTION        0.77          0.564        1.286
  WS02006112           JUNCTION        1.05          0.084        1.596
  WS02006228           JUNCTION        2.31          0.928        1.272
  WS02006229           JUNCTION        2.31          1.051        1.399
  WS02006230           JUNCTION        0.79          1.226        0.344
  WS02006231           JUNCTION        0.97          0.955        0.575
  WS02006232           JUNCTION        2.33          1.032        0.448
  WS02006234           JUNCTION        1.36          0.798        0.442
  WS02006235           JUNCTION        2.25          0.957        0.333
  WS02006238           JUNCTION        2.30          0.988        0.442
  WS02006239           JUNCTION        2.29          0.988        0.302
  WS02006240           JUNCTION        2.30          1.101        0.289
  WS02006242           JUNCTION        2.32          0.820        0.000
  WS02006243           JUNCTION        2.30          0.770        0.000
  WS02006245           JUNCTION        2.29          0.850        0.000
  WS02006247           JUNCTION        2.29          0.760        0.000
  WS02006248           JUNCTION        2.29          0.380        0.000
  WS02006249           JUNCTION        2.28          0.390        0.000
  WS02006251           JUNCTION        1.06          0.312        0.868
  WS02006252           JUNCTION        2.60          1.100        0.000
  WS02006256           JUNCTION        6.98          2.050        0.000
  YS02001580           JUNCTION        0.96          0.450        0.000
  YS02001583           JUNCTION        0.97          0.500        0.000
  YS02001586           JUNCTION        1.15          0.510        0.000
  YS02001590           JUNCTION        1.23          0.729        0.021
  YS02001593           JUNCTION        1.23          0.678        0.162
  YS02001596           JUNCTION        1.35          1.054        0.016
  YS02001600           JUNCTION        1.50          1.190        0.000
  YS02001601           JUNCTION        1.82          1.440        0.000
  YS02001602           JUNCTION        1.73          1.270        0.000
  YS02001605           JUNCTION        1.68          1.180        0.000
  YS02001607           JUNCTION        1.23          0.652        0.028
  YS02001610           JUNCTION        1.25          0.680        0.000
  YS02001613           JUNCTION        1.23          0.670        0.030
  YS02001616           JUNCTION        1.19          0.610        0.000
  YS02001619           JUNCTION        1.18          0.610        0.000
  YS02001622           JUNCTION        1.18          0.587        0.033
  YS02001625           JUNCTION        1.35          0.780        0.000
  YS02001629           JUNCTION        1.12          0.470        0.000
  YS02001633           JUNCTION        1.39          1.058        0.002
  YS02001641           JUNCTION        1.34          1.083        0.017
  YS02001644           JUNCTION        1.31          0.920        0.000
  YS02001647           JUNCTION        1.12          0.801        0.099
  YS02001649           JUNCTION        1.23          1.050        0.000
  YS02001652           JUNCTION        1.08          0.996        0.134
  YS02001655           JUNCTION        0.90          0.816        0.384
  YS02001658           JUNCTION        0.52          0.642        0.658
  YS02001661           JUNCTION        0.18          0.419        0.971
  YS02001664           JUNCTION        0.01          0.081        1.229
  YS02001745           JUNCTION        0.03          0.076        1.274
  YS02001748           JUNCTION        0.42          0.392        0.798
  YS02001751           JUNCTION        0.76          0.629        0.571
  YS02001754           JUNCTION        1.01          0.804        0.346
  YS02001757           JUNCTION        1.31          1.147        0.063
  YS02001759           JUNCTION        1.22          1.133        0.077
  YS02001762           JUNCTION        1.20          1.088        0.062
  YS02001765           JUNCTION        1.16          1.031        0.069
  YS02001767           JUNCTION        1.13          0.980        0.050
  YS02001770           JUNCTION        1.11          0.920        0.000
  YS02001774           JUNCTION        1.18          1.004        0.046
  YS02001779           JUNCTION        1.00          0.680        0.000
  YS02001783           JUNCTION        0.81          0.459        1.141
  YS02001784           JUNCTION        0.78          0.336        1.154
  YS02001786           JUNCTION        0.64          0.087        1.343
  YS02001882           JUNCTION        0.73          0.830        0.000
  YS02001884           JUNCTION        0.75          0.820        0.050
  YS02001887           JUNCTION        0.79          0.835        0.115
  YS02001890           JUNCTION        0.81          0.760        0.000
  YS02001895           JUNCTION        0.72          0.625        0.125
  YS02001898           JUNCTION        0.71          0.650        0.090
  YS02001901           JUNCTION        0.77          0.781        0.089
  YS02001904           JUNCTION        0.76          0.708        0.142
  YS02001907           JUNCTION        1.11          0.950        0.000
  YS02001910           JUNCTION        0.85          1.013        0.087
  YS02001915           JUNCTION        0.73          1.000        0.000
  YS02001918           JUNCTION        0.63          0.731        0.079
  YS02001920           JUNCTION        0.64          0.825        0.315
  YS02001923           JUNCTION        0.26          0.396        0.424
  YS02001926           JUNCTION        0.29          0.452        0.448
  YS02001929           JUNCTION        0.15          0.302        0.478
  YS02006553           JUNCTION        1.14          0.991        0.199
  YS02006556           JUNCTION        0.97          0.953        0.397
  YS02006558           JUNCTION        0.96          0.952        0.448
  YS02006561           JUNCTION        0.59          0.130        1.020
  YS02163301           JUNCTION        1.36          0.970        0.060
  YS02163601           JUNCTION        1.44          1.080        0.000
  YS02164001           JUNCTION        1.34          1.100        0.000
  
  
  *********************
  Node Flooding Summary
  *********************
  
  Flooding refers to all water that overflows a node, whether it ponds or not.
  --------------------------------------------------------------------------
                                                             Total   Maximum
                                 Maximum   Time of Max       Flood    Ponded
                        Hours       Rate    Occurrence      Volume     Depth
  Node                 Flooded       LPS   days hr:min    10^6 ltr    Meters
  --------------------------------------------------------------------------
  WS02006242              0.01      7.76      0  01:57       0.000     0.000
  WS02006243              0.01      3.87      0  01:58       0.000     0.000
  WS02006245              0.01      3.10      0  01:58       0.000     0.000
  WS02006247              0.01      3.12      0  01:58       0.000     0.000
  WS02006248              0.01     23.75      0  01:58       0.000     0.000
  WS02006249              1.02     97.25      0  01:53       0.242     0.000
  WS02006252              0.01    245.63      0  00:00       0.000     0.000
  WS02006256              1.36    293.19      0  00:00       0.467     0.000
  YS02001580              0.01     13.32      0  01:53       0.000     0.000
  YS02001583              0.01     18.32      0  01:53       0.000     0.000
  YS02001586              0.78    944.95      0  02:15       1.018     0.000
  YS02001600              0.01      0.26      0  02:16       0.000     0.000
  YS02001601              1.07   2072.36      0  02:14       2.660     0.000
  YS02001602              0.95     62.04      0  02:40       0.198     0.000
  YS02001605              0.01      0.30      0  01:58       0.000     0.000
  YS02001610              0.85    954.76      0  02:15       1.456     0.000
  YS02001616              0.05      1.70      0  02:10       0.000     0.000
  YS02001619              0.18    573.18      0  02:14       0.210     0.000
  YS02001625              0.84   1505.19      0  02:19       2.522     0.000
  YS02001629              0.25    418.32      0  02:14       0.166     0.000
  YS02001644              0.43   2826.33      0  02:13       1.825     0.000
  YS02001649              0.01      1.07      0  02:13       0.000     0.000
  YS02001770              0.14    828.57      0  02:13       0.218     0.000
  YS02001779              0.37    851.43      0  02:17       0.686     0.000
  YS02001882              0.01      0.94      0  02:32       0.000     0.000
  YS02001890              0.31    791.64      0  02:13       0.354     0.000
  YS02001907              0.56   3114.85      0  02:13       2.884     0.000
  YS02001915              0.10    331.77      0  02:14       0.068     0.000
  YS02163601              0.01     20.46      0  02:40       0.000     0.000
  YS02164001              0.01     17.75      0  02:40       0.000     0.000
  
  
  **********************
  Storage Volume Summary
  **********************
  
  ------------------------------------------------------------------------------------------------
                         Average    Avg   Evap  Exfil     Maximum    Max    Time of Max    Maximum
                          Volume   Pcnt   Pcnt   Pcnt      Volume   Pcnt     Occurrence    Outflow
  Storage Unit           1000 m³   Full   Loss   Loss     1000 m³   Full    days hr:min        LPS
  ------------------------------------------------------------------------------------------------
  CC-storage               2.802   43.7    0.0    0.0       5.556   86.7       0  02:41    1783.53
  JK-storage               0.160   55.0    0.0    0.0       0.213   73.0       0  02:21    2300.00
  
  
  ***********************
  Outfall Loading Summary
  ***********************
  
  -----------------------------------------------------------
                         Flow       Avg       Max       Total
                         Freq      Flow      Flow      Volume
  Outfall Node           Pcnt       LPS       LPS    10^6 ltr
  -----------------------------------------------------------
  CC-1                  20.90    683.00    683.00       4.468
  CC-2                  18.47    683.00    683.00       3.989
  JK-1                   9.89   1000.00   1000.00       2.634
  JK-2                   3.97   1000.00   1000.00       1.191
  WSC                   99.96    245.16    558.09       6.136
  -----------------------------------------------------------
  System                30.64   3611.16   3913.96      18.418
  
  
  ********************
  Link Flow Summary
  ********************
  
  -----------------------------------------------------------------------------
                                 Maximum  Time of Max   Maximum    Max/    Max/
                                  |Flow|   Occurrence   |Veloc|    Full    Full
  Link                 Type          LPS  days hr:min     m/sec    Flow   Depth
  -----------------------------------------------------------------------------
  1                    CONDUIT    558.09     0  02:24      2.83    0.19    0.30
  WS02003060WS02003069 CONDUIT    556.57     0  02:23      1.65    0.22    0.34
  WS02003066WSF200     CONDUIT    540.08     0  02:22      2.86    0.09    0.22
  WS02003067WS02003066 CONDUIT    540.00     0  02:22      1.21    0.17    0.42
  WS02003069WS02003072 CONDUIT    556.48     0  02:23      1.37    0.27    0.39
  WS02003072WS02003073 CONDUIT    556.37     0  02:24      1.44    1.20    0.37
  WS02004401WS02004402 CONDUIT    541.17     0  02:19      0.98    0.65    0.89
  WS02004402WS02004403 CONDUIT    541.62     0  02:20      0.97    0.78    0.91
  WS02004403WS02004404 CONDUIT    560.90     0  02:21      0.92    0.41    0.96
  WS02004404WS02004405 CONDUIT    608.79     0  02:18      1.08    5.96    0.98
  WS02004405WS02004406 CONDUIT    547.72     0  02:19      0.99    1.08    0.96
  WS02004406WS02004407 CONDUIT    541.87     0  02:19      1.04    0.24    0.63
  WS02004407WS02004409 CONDUIT    541.01     0  02:20      1.48    0.19    0.48
  WS02004409WS02004410 CONDUIT    540.74     0  02:20      0.97    0.70    0.68
  WS02004410WS02004411 CONDUIT    540.41     0  02:20      0.94    0.74    0.69
  WS02004411WS02004412 CONDUIT    540.26     0  02:21      0.93    0.77    0.70
  WS02004412WS02004413 CONDUIT    540.30     0  02:21      0.82    0.36    0.78
  WS02004413WS02003067 CONDUIT    539.90     0  02:21      1.11    0.23    0.59
  WS02006109WS02006110 CONDUIT    565.90     0  01:58      1.13    1.09    1.00
  WS02006110WS02006113 CONDUIT    572.63     0  02:50      1.39    0.52    0.79
  WS02006111WS02006112 CONDUIT    543.81     0  02:19      1.81    0.26    0.67
  WS02006112WS02006115 CONDUIT    553.21     0  02:37      0.80    0.33    0.88
  WS02006113WS02006111 CONDUIT    560.97     0  03:50      2.47    0.67    0.46
  WS02006115WS02006116 CONDUIT    541.20     0  02:08      0.97    0.69    0.79
  WS02006116WS02004401 CONDUIT    542.70     0  02:19      0.98    0.75    0.87
  WS02006228WS02006109 CONDUIT    563.08     0  01:58      1.12    2.46    1.00
  WS02006229WS02006228 CONDUIT    562.24     0  02:50      1.14    1.86    1.00
  WS02006230WS02006229 CONDUIT    561.76     0  02:50      1.46   12.50    1.00
  WS02006231WS02006230 CONDUIT    583.96     0  02:21      1.59    8.86    1.00
  WS02006232WS02006231 CONDUIT    582.70     0  01:57      1.53    1.22    1.00
  WS02006234WS02006232 CONDUIT    581.36     0  01:57      1.51    1.18    1.00
  WS02006235WS02006234 CONDUIT    574.17     0  01:57      1.49    6.06    1.00
  WS02006238WS02006235 CONDUIT    424.62     0  03:25      1.45    0.95    1.00
  WS02006239WS02006238 CONDUIT    424.16     0  02:45      1.10    1.36    1.00
  WS02006240WS02006239 CONDUIT    423.34     0  02:45      1.27    1.33    1.00
  WS02006242WS02006240 CONDUIT    422.16     0  03:15      1.14    1.68    1.00
  WS02006243WS02006242 CONDUIT    422.22     0  03:15      1.40    0.90    1.00
  WS02006245WS02006243 CONDUIT    421.86     0  03:15      1.45    1.25    1.00
  WS02006247WS02006245 CONDUIT    420.84     0  03:15      1.43    3.34    1.00
  WS02006248WS02006247 CONDUIT    421.88     0  03:15      1.44    0.92    1.00
  WS02006249WS02006248 CONDUIT    421.99     0  03:15      1.36    2.31    1.00
  WS02006251WS02006249 CONDUIT    464.59     0  01:30      1.99    1.34    1.00
  WS02006252WS02006251 CONDUIT    406.23     0  01:53     26.56    1.49    1.00
  WS02006256WS02006235 CONDUIT    288.91     0  00:00      4.23    3.06    1.00
  WSF200WS02003060     CONDUIT    540.44     0  02:22      2.07    0.12    0.28
  YS02001580YS02001583 CONDUIT     68.64     0  01:52      0.47    0.27    1.00
  YS02001583YS02001586 CONDUIT    101.46     0  01:52      0.43    0.15    1.00
  YS02001586YS02001590 CONDUIT    318.16     0  02:26      1.24    0.56    1.00
  YS02001590YS02001593 CONDUIT    318.01     0  02:00      1.12    2.00    1.00
  YS02001593YS02001596 CONDUIT    318.10     0  02:26      1.71    0.50    1.00
  YS02001596YS02001600 CONDUIT    318.31     0  02:24      1.27    0.62    1.00
  YS02001600YS02001601 CONDUIT    318.21     0  02:26      1.13    0.55    1.00
  YS02001601YS02001602 CONDUIT    495.80     0  01:52      1.75    1.79    1.00
  YS02001602YS02001605 CONDUIT    495.29     0  01:52      1.75   10.48    1.00
  YS02001605YS02001607 CONDUIT    494.43     0  01:52      1.75    2.71    1.00
  YS02001607YS02001610 CONDUIT    492.88     0  01:51      0.63    0.47    1.00
  YS02001610YS02001613 CONDUIT    618.98     0  02:19      0.79    0.71    1.00
  YS02001613YS02001616 CONDUIT    618.69     0  02:19      0.79    0.53    1.00
  YS02001616YS02001619 CONDUIT    619.00     0  02:19      0.79    1.07    1.00
  YS02001619YS02001622 CONDUIT   1053.94     0  02:15      1.34    1.55    1.00
  YS02001622YS02001625 CONDUIT   1053.69     0  02:17      1.34    0.56    1.00
  YS02001625YS02001629 CONDUIT    899.56     0  01:56      1.15    0.43    1.00
  YS02001629YS02163301 CONDUIT    900.37     0  01:56      1.15    1.11    1.00
  YS02001633YS02163601 CONDUIT   1254.01     0  01:56      1.60    1.32    1.00
  YS02001641YS02001644 CONDUIT   1252.64     0  01:56      1.59    4.05    1.00
  YS02001644YS02001647 CONDUIT   1590.47     0  01:57      2.07    0.93    1.00
  YS02001647YS02001649 CONDUIT   1593.72     0  01:57      2.24    0.84    1.00
  YS02001649YS02001757 CONDUIT   1781.38     0  01:58      2.29    1.08    1.00
  YS02001652YS02001649 CONDUIT   1427.32     0  02:13      1.82    0.71    1.00
  YS02001655YS02001652 CONDUIT   1425.63     0  02:13      1.82    0.69    1.00
  YS02001658YS02001655 CONDUIT   1424.94     0  02:13      1.81    0.60    1.00
  YS02001661YS02001658 CONDUIT   1424.55     0  02:13      2.12    0.56    1.00
  YS02001664YS02001661 CONDUIT   1424.75     0  02:13      2.01    0.45    1.00
  YS02001745YS02001748 CONDUIT    886.27     0  02:13      1.96    0.34    1.00
  YS02001748YS02001751 CONDUIT    886.21     0  02:13      1.56    0.45    1.00
  YS02001751YS02001754 CONDUIT    887.91     0  02:13      1.38    0.43    1.00
  YS02001754YS02001757 CONDUIT    889.62     0  02:13      1.13    0.36    1.00
  YS02001757CaochengTiaoxuchi CONDUIT   2971.70     0  02:12      3.78    1.29    1.00
  YS02001759YS02001757 CONDUIT   1327.00     0  02:12      1.69    0.94    1.00
  YS02001762YS02001759 CONDUIT    679.27     0  02:04      0.86    0.78    1.00
  YS02001765YS02001762 CONDUIT    679.12     0  02:04      0.86    0.64    1.00
  YS02001767YS02001765 CONDUIT    679.68     0  02:04      0.87    0.85    1.00
  YS02001770YS02001767 CONDUIT    678.98     0  02:04      0.86    2.69    1.00
  YS02001774YS02001770 CONDUIT    852.05     0  02:17      1.08    0.54    1.00
  YS02001779YS02001774 CONDUIT    851.69     0  02:15      1.08    0.43    1.00
  YS02001783YS02001784 CONDUIT   1177.80     0  02:13      2.34    1.62    1.00
  YS02001784YS02001785 CONDUIT   1179.35     0  02:13      2.35    2.74    1.00
  YS02001786YS02001788 CONDUIT   1180.44     0  02:13      2.50    2.27    0.89
  YS02001788YS02001790 CONDUIT   1189.10     0  02:11      2.73    0.88    0.84
  YS02001790YS02001791 CONDUIT   1295.25     0  02:13      3.44    1.41    0.71
  YS02001791YS02001793 CONDUIT   1269.39     0  02:13      6.76    0.55    0.45
  YS02001793JiankangQianchi CONDUIT   1269.82     0  02:13      2.54    0.10    0.65
  YS02001882YS02001884 CONDUIT     31.92     0  01:56      0.17    0.04    1.00
  YS02001884YS02001887 CONDUIT     34.83     0  01:55      0.13    0.05    1.00
  YS02001887YS02001890 CONDUIT   1307.88     0  02:13      1.67    2.24    1.00
  YS02001890YS02001895 CONDUIT    518.52     0  02:18      0.66    0.24    1.00
  YS02001895YS02001898 CONDUIT    518.27     0  02:18      0.66    0.90    1.00
  YS02001898YS02001901 CONDUIT    518.23     0  02:18      0.66    0.33    1.00
  YS02001901YS02001904 CONDUIT    518.04     0  02:18      0.66    0.80    1.00
  YS02001904YS02001907 CONDUIT    518.25     0  02:18      0.66    0.18    1.00
  YS02001907YS02006553 CONDUIT    800.83     0  02:34      0.89    0.94    1.00
  YS02001910YS02001907 CONDUIT   1993.01     0  02:15      2.54    1.12    1.00
  YS02001915YS02001910 CONDUIT   1993.10     0  02:15      2.54    0.99    1.00
  YS02001918YS02001915 CONDUIT    772.23     0  02:14      0.98    0.43    1.00
  YS02001920YS02001918 CONDUIT    771.78     0  02:14      0.98    0.75    1.00
  YS02001923YS02001920 CONDUIT    768.59     0  02:14      0.98    0.34    1.00
  YS02001926YS02001923 CONDUIT    767.17     0  02:14      0.98    1.10    1.00
  YS02001929YS02001926 CONDUIT    767.93     0  02:14      1.06    0.36    1.00
  YS02006553YS02006556 CONDUIT    800.43     0  02:35      1.02    0.68    1.00
  YS02006556YS02006558 CONDUIT    802.68     0  02:34      1.02    0.63    1.00
  YS02006558YS02006561 CONDUIT   1179.04     0  02:13      4.17    2.61    1.00
  YS02006561YS02001783 CONDUIT   1178.47     0  02:13      2.34    0.61    1.00
  YS02163301YS02001633 CONDUIT    900.71     0  01:56      1.15    0.85    1.00
  YS02163601YS02164001 CONDUIT   1253.64     0  01:56      1.60    1.11    1.00
  YS02164001YS02001641 CONDUIT   1251.69     0  01:56      1.59    1.71    1.00
  CC-R1                PUMP       683.00     0  00:00              1.00
  CC-R2                PUMP       683.00     0  00:00              1.00
  CC-S1                PUMP       200.00     0  00:00              1.00
  CC-S2                PUMP       200.00     0  00:00              1.00
  JK-R1                PUMP      1000.00     0  00:00              1.00
  JK-R2                PUMP      1000.00     0  00:00              1.00
  JK-S                 PUMP       300.00     0  00:00              1.00
  
  
  ***************************
  Flow Classification Summary
  ***************************
  
  -------------------------------------------------------------------------------------
                      Adjusted    ---------- Fraction of Time in Flow Class ---------- 
                       /Actual         Up    Down  Sub   Sup   Up    Down  Norm  Inlet 
  Conduit               Length    Dry  Dry   Dry   Crit  Crit  Crit  Crit  Ltd   Ctrl  
  -------------------------------------------------------------------------------------
  1                       1.00   0.00  0.00  0.00  0.00  1.00  0.00  0.00  0.34  0.00
  WS02003060WS02003069    1.00   0.00  0.00  0.00  0.98  0.02  0.00  0.00  0.62  0.00
  WS02003066WSF200        1.00   0.13  0.00  0.00  0.00  0.87  0.00  0.00  0.76  0.00
  WS02003067WS02003066    1.00   0.10  0.02  0.00  0.88  0.00  0.00  0.00  0.00  0.00
  WS02003069WS02003072    1.00   0.00  0.00  0.00  0.99  0.01  0.00  0.00  0.69  0.00
  WS02003072WS02003073    1.00   0.00  0.00  0.00  0.00  0.00  0.00  1.00  0.00  0.00
  WS02004401WS02004402    1.00   0.02  0.00  0.00  0.98  0.00  0.00  0.00  0.00  0.00
  WS02004402WS02004403    1.00   0.02  0.00  0.00  0.97  0.00  0.00  0.00  0.00  0.00
  WS02004403WS02004404    1.00   0.00  0.03  0.00  0.97  0.00  0.00  0.00  0.00  0.00
  WS02004404WS02004405    1.00   0.00  0.00  0.00  1.00  0.00  0.00  0.00  0.01  0.00
  WS02004405WS02004406    1.00   0.00  0.00  0.00  1.00  0.00  0.00  0.00  0.00  0.00
  WS02004406WS02004407    1.00   0.00  0.05  0.00  0.95  0.00  0.00  0.00  0.00  0.00
  WS02004407WS02004409    1.00   0.05  0.00  0.00  0.94  0.01  0.00  0.00  0.94  0.00
  WS02004409WS02004410    1.00   0.05  0.00  0.00  0.95  0.00  0.00  0.00  0.03  0.00
  WS02004410WS02004411    1.00   0.05  0.00  0.00  0.95  0.00  0.00  0.00  0.01  0.00
  WS02004411WS02004412    1.00   0.05  0.00  0.00  0.95  0.00  0.00  0.00  0.00  0.00
  WS02004412WS02004413    1.00   0.05  0.00  0.00  0.94  0.00  0.00  0.00  0.01  0.00
  WS02004413WS02003067    1.00   0.06  0.04  0.00  0.00  0.00  0.90  0.00  0.00  0.00
  WS02006109WS02006110    1.00   0.00  0.01  0.00  0.98  0.00  0.01  0.00  0.00  0.00
  WS02006110WS02006113    1.00   0.01  0.01  0.00  0.98  0.00  0.00  0.00  0.00  0.00
  WS02006111WS02006112    1.00   0.02  0.00  0.00  0.98  0.00  0.00  0.00  0.98  0.00
  WS02006112WS02006115    1.00   0.02  0.00  0.00  0.97  0.00  0.00  0.00  0.00  0.00
  WS02006113WS02006111    1.00   0.02  0.00  0.00  0.00  0.98  0.00  0.00  0.15  0.00
  WS02006115WS02006116    1.00   0.02  0.00  0.00  0.97  0.00  0.00  0.01  0.00  0.00
  WS02006116WS02004401    1.00   0.02  0.00  0.00  0.98  0.00  0.00  0.00  0.00  0.00
  WS02006228WS02006109    1.00   0.00  0.00  0.00  1.00  0.00  0.00  0.00  0.01  0.00
  WS02006229WS02006228    1.00   0.00  0.00  0.00  0.99  0.00  0.00  0.01  0.00  0.00
  WS02006230WS02006229    1.00   0.00  0.00  0.00  0.99  0.00  0.00  0.01  0.00  0.00
  WS02006231WS02006230    1.00   0.00  0.00  0.00  0.30  0.00  0.70  0.00  0.00  0.00
  WS02006232WS02006231    1.00   0.00  0.00  0.00  0.98  0.00  0.01  0.00  0.00  0.00
  WS02006234WS02006232    1.00   0.00  0.00  0.00  1.00  0.00  0.00  0.00  0.05  0.00
  WS02006235WS02006234    1.00   0.00  0.00  0.00  0.91  0.00  0.09  0.00  0.00  0.00
  WS02006238WS02006235    1.00   0.00  0.00  0.00  1.00  0.00  0.00  0.00  0.00  0.00
  WS02006239WS02006238    1.00   0.00  0.00  0.00  1.00  0.00  0.00  0.00  0.12  0.00
  WS02006240WS02006239    1.00   0.00  0.00  0.00  0.78  0.00  0.00  0.22  0.04  0.00
  WS02006242WS02006240    1.00   0.00  0.00  0.00  0.97  0.00  0.03  0.00  0.00  0.00
  WS02006243WS02006242    1.00   0.00  0.00  0.00  0.97  0.00  0.00  0.02  0.39  0.00
  WS02006245WS02006243    1.00   0.00  0.00  0.00  0.88  0.00  0.00  0.11  0.02  0.00
  WS02006247WS02006245    1.00   0.00  0.00  0.00  0.97  0.00  0.00  0.03  0.00  0.00
  WS02006248WS02006247    1.00   0.00  0.00  0.00  0.98  0.00  0.00  0.02  0.33  0.00
  WS02006249WS02006248    1.00   0.00  0.00  0.00  0.62  0.00  0.38  0.00  0.00  0.00
  WS02006251WS02006249    1.00   0.00  0.00  0.00  0.99  0.01  0.00  0.00  0.41  0.00
  WS02006252WS02006251    1.00   0.00  0.47  0.00  0.13  0.00  0.40  0.00  0.00  0.00
  WS02006256WS02006235    1.00   0.00  0.00  0.00  1.00  0.00  0.00  0.00  0.00  0.00
  WSF200WS02003060        1.00   0.00  0.13  0.00  0.11  0.76  0.00  0.00  0.45  0.00
  YS02001580YS02001583    1.00   0.23  0.53  0.00  0.25  0.00  0.00  0.00  0.62  0.00
  YS02001583YS02001586    1.00   0.40  0.30  0.00  0.30  0.00  0.00  0.00  0.62  0.00
  YS02001586YS02001590    1.00   0.13  0.00  0.00  0.47  0.04  0.00  0.37  0.35  0.00
  YS02001590YS02001593    1.00   0.13  0.01  0.00  0.17  0.00  0.70  0.00  0.00  0.00
  YS02001593YS02001596    1.00   0.13  0.00  0.00  0.19  0.01  0.00  0.67  0.02  0.00
  YS02001596YS02001600    1.00   0.13  0.00  0.00  0.24  0.01  0.00  0.61  0.04  0.00
  YS02001600YS02001601    1.00   0.13  0.01  0.00  0.87  0.00  0.00  0.00  0.57  0.00
  YS02001601YS02001602    1.00   0.13  0.01  0.00  0.87  0.00  0.00  0.00  0.00  0.00
  YS02001602YS02001605    1.00   0.13  0.00  0.00  0.87  0.00  0.00  0.00  0.00  0.00
  YS02001605YS02001607    1.00   0.13  0.00  0.00  0.87  0.00  0.00  0.00  0.00  0.00
  YS02001607YS02001610    1.00   0.13  0.00  0.00  0.86  0.00  0.00  0.00  0.01  0.00
  YS02001610YS02001613    1.00   0.13  0.00  0.00  0.87  0.00  0.00  0.00  0.00  0.00
  YS02001613YS02001616    1.00   0.13  0.00  0.00  0.87  0.00  0.00  0.00  0.00  0.00
  YS02001616YS02001619    1.00   0.13  0.00  0.00  0.87  0.00  0.00  0.00  0.00  0.00
  YS02001619YS02001622    1.00   0.13  0.00  0.00  0.87  0.00  0.00  0.00  0.27  0.00
  YS02001622YS02001625    1.00   0.13  0.00  0.00  0.87  0.00  0.00  0.00  0.03  0.00
  YS02001625YS02001629    1.00   0.13  0.04  0.00  0.22  0.00  0.61  0.00  0.00  0.00
  YS02001629YS02163301    1.00   0.14  0.01  0.00  0.85  0.00  0.00  0.00  0.00  0.00
  YS02001633YS02163601    1.00   0.00  0.01  0.00  0.99  0.00  0.00  0.00  0.14  0.00
  YS02001641YS02001644    1.00   0.00  0.01  0.00  0.99  0.00  0.00  0.00  0.00  0.00
  YS02001644YS02001647    1.00   0.00  0.16  0.00  0.84  0.00  0.00  0.00  0.00  0.00
  YS02001647YS02001649    1.00   0.00  0.16  0.00  0.60  0.24  0.00  0.00  0.55  0.00
  YS02001649YS02001757    1.00   0.00  0.00  0.00  0.87  0.13  0.00  0.00  0.39  0.00
  YS02001652YS02001649    1.00   0.00  0.00  0.00  0.97  0.03  0.00  0.00  0.69  0.00
  YS02001655YS02001652    1.00   0.00  0.00  0.00  0.25  0.01  0.00  0.74  0.05  0.00
  YS02001658YS02001655    1.00   0.00  0.14  0.00  0.72  0.15  0.00  0.00  0.62  0.00
  YS02001661YS02001658    1.00   0.14  0.00  0.00  0.56  0.31  0.00  0.00  0.63  0.00
  YS02001664YS02001661    1.00   0.13  0.00  0.00  0.80  0.08  0.00  0.00  0.82  0.00
  YS02001745YS02001748    1.00   0.00  0.00  0.00  0.16  0.00  0.00  0.83  0.04  0.00
  YS02001748YS02001751    1.00   0.00  0.00  0.00  0.87  0.13  0.00  0.00  0.71  0.00
  YS02001751YS02001754    1.00   0.00  0.00  0.00  0.23  0.01  0.00  0.76  0.04  0.00
  YS02001754YS02001757    1.00   0.00  0.00  0.00  1.00  0.00  0.00  0.00  0.74  0.00
  YS02001757CaochengTiaoxuchi    1.00   0.00  0.00  0.00  1.00  0.00  0.00  0.00  0.57  0.00
  YS02001759YS02001757    1.00   0.00  0.00  0.00  0.98  0.02  0.00  0.00  0.48  0.00
  YS02001762YS02001759    1.00   0.00  0.00  0.00  1.00  0.00  0.00  0.00  0.04  0.00
  YS02001765YS02001762    1.00   0.00  0.00  0.00  1.00  0.00  0.00  0.00  0.61  0.00
  YS02001767YS02001765    1.00   0.00  0.00  0.00  1.00  0.00  0.00  0.00  0.01  0.00
  YS02001770YS02001767    1.00   0.00  0.00  0.00  1.00  0.00  0.00  0.00  0.00  0.00
  YS02001774YS02001770    1.00   0.00  0.13  0.00  0.71  0.00  0.16  0.00  0.02  0.00
  YS02001779YS02001774    1.00   0.00  0.00  0.00  1.00  0.00  0.00  0.00  0.70  0.00
  YS02001783YS02001784    1.00   0.00  0.16  0.00  0.84  0.00  0.00  0.00  0.54  0.00
  YS02001784YS02001785    1.00   0.00  0.00  0.00  1.00  0.00  0.00  0.00  0.15  0.00
  YS02001786YS02001788    1.00   0.00  0.00  0.00  0.80  0.20  0.00  0.00  0.00  0.00
  YS02001788YS02001790    1.00   0.00  0.00  0.00  0.21  0.79  0.00  0.00  0.77  0.00
  YS02001790YS02001791    1.00   0.00  0.00  0.00  0.01  0.99  0.00  0.00  0.15  0.00
  YS02001791YS02001793    1.00   0.00  0.00  0.00  0.00  1.00  0.00  0.00  0.01  0.00
  YS02001793JiankangQianchi    1.00   0.00  0.00  0.00  0.96  0.04  0.00  0.00  0.94  0.00
  YS02001882YS02001884    1.00   0.14  0.01  0.00  0.85  0.00  0.00  0.00  0.00  0.00
  YS02001884YS02001887    1.00   0.06  0.05  0.00  0.89  0.00  0.00  0.00  0.00  0.00
  YS02001887YS02001890    1.00   0.00  0.00  0.00  0.97  0.00  0.03  0.00  0.00  0.00
  YS02001890YS02001895    1.00   0.00  0.15  0.00  0.85  0.00  0.00  0.00  0.00  0.00
  YS02001895YS02001898    1.00   0.15  0.00  0.00  0.83  0.00  0.01  0.00  0.00  0.00
  YS02001898YS02001901    1.00   0.15  0.00  0.00  0.85  0.00  0.00  0.00  0.01  0.00
  YS02001901YS02001904    1.00   0.15  0.00  0.00  0.85  0.00  0.00  0.00  0.00  0.00
  YS02001904YS02001907    1.00   0.00  0.15  0.00  0.85  0.00  0.00  0.00  0.00  0.00
  YS02001907YS02006553    1.00   0.00  0.02  0.00  0.98  0.00  0.00  0.00  0.00  0.00
  YS02001910YS02001907    1.00   0.00  0.00  0.00  0.97  0.00  0.00  0.03  0.11  0.00
  YS02001915YS02001910    1.00   0.00  0.00  0.00  0.97  0.03  0.00  0.00  0.13  0.00
  YS02001918YS02001915    1.00   0.00  0.01  0.00  0.98  0.02  0.00  0.00  0.70  0.00
  YS02001920YS02001918    1.00   0.00  0.01  0.00  0.99  0.00  0.00  0.00  0.00  0.00
  YS02001923YS02001920    1.00   0.00  0.00  0.00  1.00  0.00  0.00  0.00  0.89  0.00
  YS02001926YS02001923    1.00   0.00  0.07  0.00  0.09  0.00  0.83  0.00  0.00  0.00
  YS02001929YS02001926    1.00   0.00  0.13  0.00  0.87  0.00  0.00  0.00  0.79  0.00
  YS02006553YS02006556    1.00   0.01  0.00  0.00  0.99  0.00  0.00  0.00  0.03  0.00
  YS02006556YS02006558    1.00   0.00  0.00  0.00  1.00  0.00  0.00  0.00  0.00  0.00
  YS02006558YS02006561    1.00   0.16  0.00  0.00  0.09  0.75  0.00  0.00  0.17  0.00
  YS02006561YS02001783    1.00   0.16  0.00  0.00  0.13  0.71  0.00  0.00  0.65  0.00
  YS02163301YS02001633    1.00   0.00  0.14  0.00  0.86  0.00  0.00  0.00  0.00  0.00
  YS02163601YS02164001    1.00   0.00  0.08  0.00  0.92  0.00  0.00  0.00  0.00  0.00
  YS02164001YS02001641    1.00   0.01  0.07  0.00  0.92  0.00  0.00  0.00  0.05  0.00
  
  
  *************************
  Conduit Surcharge Summary
  *************************
  
  ----------------------------------------------------------------------------
                                                           Hours        Hours 
                         --------- Hours Full --------   Above Full   Capacity
  Conduit                Both Ends  Upstream  Dnstream   Normal Flow   Limited
  ----------------------------------------------------------------------------
  WS02003072WS02003073        0.01      0.01      0.01      1.53         0.01
  WS02004403WS02004404        0.01      0.01      0.01      0.01         0.01
  WS02004404WS02004405        0.01      0.01      0.01      3.91         0.01
  WS02004405WS02004406        0.01      0.01      0.01      0.72         0.01
  WS02006109WS02006110        0.77      0.77      2.33      0.94         0.01
  WS02006110WS02006113        0.01      0.01      2.32      0.01         0.01
  WS02006111WS02006112        0.01      0.01      2.54      0.01         0.01
  WS02006112WS02006115        0.01      0.01      1.05      0.01         0.01
  WS02006228WS02006109        2.31      2.33      2.31      2.98         2.31
  WS02006229WS02006228        2.31      2.31      2.31      2.50         2.30
  WS02006230WS02006229        2.35      2.41      2.35      5.16         2.35
  WS02006231WS02006230        0.79      0.79      1.03      4.57         0.01
  WS02006232WS02006231        0.97      0.97      2.33      1.06         0.01
  WS02006234WS02006232        2.24      2.24      2.33      1.03         1.02
  WS02006235WS02006234        1.34      1.35      2.25      4.28         0.03
  WS02006238WS02006235        2.27      2.27      2.32      0.01         0.01
  WS02006239WS02006238        2.30      2.32      2.30      2.41         2.07
  WS02006240WS02006239        2.29      2.31      2.29      2.42         1.94
  WS02006242WS02006240        2.30      2.30      2.33      2.56         0.01
  WS02006243WS02006242        2.30      2.30      2.32      0.01         0.06
  WS02006245WS02006243        2.29      2.29      2.30      1.60         1.54
  WS02006247WS02006245        2.29      2.30      2.29      4.09         2.27
  WS02006248WS02006247        2.29      2.29      2.29      0.01         0.07
  WS02006249WS02006248        2.28      2.29      2.28      3.99         0.01
  WS02006251WS02006249        2.28      2.28      2.28      2.52         2.19
  WS02006252WS02006251        2.58      2.58      2.59      2.59         0.01
  WS02006256WS02006235        4.30      4.36      6.94      1.36         0.01
  YS02001580YS02001583        0.96      0.96      1.05      0.01         0.01
  YS02001583YS02001586        0.97      0.97      1.15      0.01         0.01
  YS02001586YS02001590        1.16      1.16      1.23      0.01         0.01
  YS02001590YS02001593        1.23      1.23      1.25      1.22         0.01
  YS02001593YS02001596        1.24      1.24      1.35      0.01         0.01
  YS02001596YS02001600        1.40      1.40      1.50      0.01         0.01
  YS02001600YS02001601        1.56      1.56      1.82      0.01         0.01
  YS02001601YS02001602        1.73      1.73      1.85      1.50         0.01
  YS02001602YS02001605        1.68      1.68      1.73      2.57         0.01
  YS02001605YS02001607        1.64      1.68      1.65      1.74         1.60
  YS02001607YS02001610        1.23      1.23      1.25      0.01         0.01
  YS02001610YS02001613        1.23      1.23      1.25      0.01         0.01
  YS02001613YS02001616        1.19      1.19      1.23      0.01         0.01
  YS02001616YS02001619        1.18      1.18      1.19      0.17         0.15
  YS02001619YS02001622        1.18      1.18      1.18      1.19         1.04
  YS02001622YS02001625        1.18      1.18      1.35      0.01         0.01
  YS02001625YS02001629        1.12      1.12      1.35      0.01         0.01
  YS02001629YS02163301        1.35      1.35      1.36      0.14         0.13
  YS02001633YS02163601        1.39      1.39      1.44      0.15         0.21
  YS02001641YS02001644        1.31      1.34      1.31      1.90         1.27
  YS02001644YS02001647        1.12      1.12      1.31      0.01         0.01
  YS02001647YS02001649        1.12      1.12      1.23      0.01         0.01
  YS02001649YS02001757        1.23      1.23      1.31      0.08         0.05
  YS02001652YS02001649        1.08      1.08      1.23      0.01         0.01
  YS02001655YS02001652        0.90      0.90      1.08      0.01         0.01
  YS02001658YS02001655        0.52      0.52      0.90      0.01         0.01
  YS02001661YS02001658        0.18      0.18      0.52      0.01         0.01
  YS02001664YS02001661        0.01      0.01      0.25      0.01         0.01
  YS02001745YS02001748        0.03      0.03      0.42      0.01         0.01
  YS02001748YS02001751        0.49      0.49      0.75      0.01         0.01
  YS02001751YS02001754        0.75      0.75      1.01      0.01         0.01
  YS02001754YS02001757        1.05      1.05      1.31      0.01         0.01
  YS02001757CaochengTiaoxuchi        1.31      1.31      2.31      0.50         0.50
  YS02001759YS02001757        1.22      1.22      1.31      0.01         0.01
  YS02001762YS02001759        1.20      1.20      1.22      0.01         0.01
  YS02001765YS02001762        1.16      1.16      1.20      0.01         0.01
  YS02001767YS02001765        1.13      1.13      1.16      0.01         0.02
  YS02001770YS02001767        1.12      1.12      1.13      0.70         0.67
  YS02001774YS02001770        1.11      1.11      1.18      0.01         0.01
  YS02001779YS02001774        1.00      1.00      1.18      0.01         0.01
  YS02001783YS02001784        0.78      0.81      0.78      1.02         0.78
  YS02001784YS02001785        0.64      0.78      0.64      1.35         0.64
  YS02001786YS02001788        0.01      0.64      0.01      1.18         0.01
  YS02001790YS02001791        0.01      0.01      0.01      0.76         0.01
  YS02001793JiankangQianchi        0.01      0.01      7.70      0.01         0.01
  YS02001882YS02001884        0.73      0.73      0.75      0.01         0.01
  YS02001884YS02001887        0.78      0.78      0.79      0.01         0.01
  YS02001887YS02001890        0.81      0.81      0.83      0.24         0.01
  YS02001890YS02001895        0.72      0.72      0.85      0.01         0.01
  YS02001895YS02001898        0.71      0.71      0.72      0.01         0.01
  YS02001898YS02001901        0.72      0.72      0.77      0.01         0.01
  YS02001901YS02001904        0.76      0.76      0.77      0.01         0.01
  YS02001904YS02001907        0.76      0.76      1.15      0.01         0.01
  YS02001907YS02006553        1.37      1.37      1.44      0.01         0.01
  YS02001910YS02001907        0.85      0.85      1.11      0.13         0.13
  YS02001915YS02001910        0.73      0.73      0.85      0.01         0.01
  YS02001918YS02001915        0.63      0.63      0.73      0.01         0.01
  YS02001920YS02001918        0.63      0.63      0.64      0.01         0.01
  YS02001923YS02001920        0.57      0.57      0.64      0.01         0.01
  YS02001926YS02001923        0.26      0.26      0.29      0.07         0.01
  YS02001929YS02001926        0.15      0.15      0.29      0.01         0.01
  YS02006553YS02006556        0.97      0.97      1.14      0.01         0.01
  YS02006556YS02006558        1.07      1.07      1.17      0.01         0.01
  YS02006558YS02006561        0.67      0.96      0.67      1.29         0.67
  YS02006561YS02001783        0.59      0.59      0.81      0.01         0.01
  YS02163301YS02001633        1.36      1.36      1.41      0.01         0.01
  YS02163601YS02164001        1.34      1.34      1.44      0.10         0.01
  YS02164001YS02001641        1.33      1.34      1.34      0.78         0.70
  
  
  ***************
  Pumping Summary
  ***************
  
  ---------------------------------------------------------------------------------------------------------
                                                  Min       Avg       Max     Total     Power    % Time Off
                        Percent   Number of      Flow      Flow      Flow    Volume     Usage    Pump Curve
  Pump                 Utilized   Start-Ups       LPS       LPS       LPS  10^6 ltr     Kw-hr    Low   High
  ---------------------------------------------------------------------------------------------------------
  CC-R1                   22.71           2      0.00    683.00    683.00     4.467     86.98    0.0    4.6
  CC-R2                   20.28           3      0.00    683.00    683.00     3.989     77.85    0.0   10.3
  CC-S1                   46.66           5      0.00    200.00    200.00     2.687     14.59    0.0    0.0
  CC-S2                   38.57           9      0.00    200.00    200.00     2.222     11.97    0.0    0.0
  JK-R1                    9.15          13      0.00   1000.00   1000.00     2.636     28.33    0.0    0.0
  JK-R2                    4.13           7      0.00   1000.00   1000.00     1.190     12.08    0.0    0.0
  JK-S                    16.94          20      0.00    300.00    300.00     1.463     20.51    0.0    0.0
  

  Analysis begun on:  Mon Jan 13 10:09:17 2025
  Analysis ended on:  Mon Jan 13 10:09:19 2025
  Total elapsed time: 00:00:02