
  EPA STORM WATER MANAGEMENT MODEL - VERSION 5.2 (Build 5.2.4)
  PYSWMM TOOLKIT API - VERSION v1.0 (2023-11-27)
  ------------------------------------------------------------

  WARNING 04: minimum elevation drop used for Conduit WS02004404WS02004405
  WARNING 03: negative offset ignored for Link YS02001904YS02001907
  
  ****************
  Analysis Options
  ****************
  Flow Units ............... LPS
  Process Models:
    Rainfall/Runoff ........ YES
    RDII ................... NO
    Snowmelt ............... NO
    Groundwater ............ NO
    Flow Routing ........... YES
    Ponding Allowed ........ NO
    Water Quality .......... NO
  Infiltration Method ...... HORTON
  Flow Routing Method ...... DYNWAVE
  Surcharge Method ......... EXTRAN
  Starting Date ............ 08/28/2015 08:00:00
  Ending Date .............. 08/28/2015 16:00:00
  Antecedent Dry Days ...... 8.0
  Report Time Step ......... 00:01:00
  Wet Time Step ............ 00:01:00
  Dry Time Step ............ 00:01:00
  Routing Time Step ........ 30.00 sec
  Variable Time Step ....... YES
  Maximum Trials ........... 8
  Number of Threads ........ 4
  Head Tolerance ........... 0.001500 m
  
  
  **************************        Volume         Depth
  Runoff Quantity Continuity     hectare-m            mm
  **************************     ---------       -------
  Total Precipitation ......         3.445       103.865
  Evaporation Loss .........         0.000         0.000
  Infiltration Loss ........         0.104         3.128
  Surface Runoff ...........         3.309        99.769
  Final Storage ............         0.033         0.996
  Continuity Error (%) .....        -0.027
  
  
  **************************        Volume        Volume
  Flow Routing Continuity        hectare-m      10^6 ltr
  **************************     ---------     ---------
  Dry Weather Inflow .......         0.025         0.251
  Wet Weather Inflow .......         3.310        33.096
  Groundwater Inflow .......         0.000         0.000
  RDII Inflow ..............         0.000         0.000
  External Inflow ..........         0.083         0.834
  External Outflow .........         1.939        19.388
  Flooding Loss ............         1.492        14.920
  Evaporation Loss .........         0.000         0.000
  Exfiltration Loss ........         0.000         0.000
  Initial Stored Volume ....         0.243         2.431
  Final Stored Volume ......         0.237         2.371
  Continuity Error (%) .....        -0.181
  
  
  *************************
  Highest Continuity Errors
  *************************
  Node YS02001583 (-7.89%)
  Node YS02001884 (4.76%)
  Node WS02006256 (-1.04%)
  
  
  ***************************
  Time-Step Critical Elements
  ***************************
  Link WS02006252WS02006251 (46.65%)
  Link WS02006238WS02006235 (14.95%)
  Link WS02004404WS02004405 (8.81%)
  Link YS02001791YS02001793 (7.19%)
  Link WS02003066WSF200 (6.72%)
  
  
  ********************************
  Highest Flow Instability Indexes
  ********************************
  Link WS02006113WS02006111 (46)
  Link WS02006111WS02006112 (24)
  Link WS02004404WS02004405 (21)
  Link WS02004403WS02004404 (19)
  Link WS02006252WS02006251 (18)
  
  
  *********************************
  Most Frequent Nonconverging Nodes
  *********************************
  Node CC-1 (14.32%)
  Node CC-2 (14.32%)
  Node JK-1 (14.32%)
  Node JK-2 (14.32%)
  Node WSC (14.32%)
  
  
  *************************
  Routing Time Step Summary
  *************************
  Minimum Time Step           :     0.01 sec
  Average Time Step           :     1.75 sec
  Maximum Time Step           :     7.04 sec
  % of Time in Steady State   :     0.00
  Average Iterations per Step :     3.30
  % of Steps Not Converging   :    14.32
  Time Step Frequencies       :
     30.000 - 13.228 sec      :     0.00 %
     13.228 -  5.833 sec      :     2.79 %
      5.833 -  2.572 sec      :    19.46 %
      2.572 -  1.134 sec      :    25.42 %
      1.134 -  0.500 sec      :    52.33 %
  
  
  ***************************
  Subcatchment Runoff Summary
  ***************************
  
  ------------------------------------------------------------------------------------------------------------------------------
                            Total      Total      Total      Total     Imperv       Perv      Total       Total     Peak  Runoff
                           Precip      Runon       Evap      Infil     Runoff     Runoff     Runoff      Runoff   Runoff   Coeff
  Subcatchment                 mm         mm         mm         mm         mm         mm         mm    10^6 ltr      LPS
  ------------------------------------------------------------------------------------------------------------------------------
  sub60                    103.87       0.00       0.00       1.89      90.21      10.58     100.79        1.32   859.68   0.970
  sub61                    103.87       0.00       0.00       2.74      85.09      14.92     100.02        1.84  1191.96   0.963
  sub62                    103.87       0.00       0.00       1.26      94.28       7.05     101.34        2.78  1677.84   0.976
  sub63                    103.87       0.00       0.00       5.03      72.79      25.10      97.88        2.22  1329.16   0.942
  sub64                    103.87       0.00       0.00       2.55      87.09      13.04     100.13        2.41  1359.78   0.964
  sub65                    103.87       0.00       0.00       2.21      89.12      11.30     100.42        2.76  1523.11   0.967
  sub66                    103.87       0.00       0.00       6.18      72.67      23.95      96.62        4.51  1993.77   0.930
  sub67                    103.87       0.00       0.00       1.21      94.33       7.10     101.43        1.89  1301.16   0.977
  sub68                    103.87       0.00       0.00       2.27      88.15      12.28     100.43        2.76  1719.26   0.967
  sub69                    103.87       0.00       0.00       2.04      88.18      13.55     101.73        3.77  2028.83   0.979
  sub70                    103.87       0.00       0.00       6.71      68.39      28.61      97.00        2.80  1117.89   0.934
  sub71                    103.87       0.00       0.00       1.29      94.24       7.02     101.26        2.65  1472.94   0.975
  sub72                    103.87       0.00       0.00       1.15      95.20       6.12     101.33        1.39   711.23   0.976
  
  
  ******************
  Node Depth Summary
  ******************
  
  ---------------------------------------------------------------------------------
                                 Average  Maximum  Maximum  Time of Max    Reported
                                   Depth    Depth      HGL   Occurrence   Max Depth
  Node                 Type       Meters   Meters   Meters  days hr:min      Meters
  ---------------------------------------------------------------------------------
  WS02003060           JUNCTION     0.24     0.38     5.31     0  03:18        0.38
  WS02003066           JUNCTION     0.20     0.30     5.85     0  03:17        0.30
  WS02003067           JUNCTION     0.51     0.70     6.02     0  03:17        0.70
  WS02003069           JUNCTION     0.27     0.43     5.01     0  03:18        0.43
  WS02003072           JUNCTION     0.33     0.50     4.87     0  03:19        0.50
  WS02003073           JUNCTION     0.19     0.30     4.36     0  03:20        0.30
  WS02004401           JUNCTION     0.60     0.87     6.87     0  01:56        0.87
  WS02004402           JUNCTION     0.64     0.90     6.86     0  03:16        0.90
  WS02004403           JUNCTION     0.66     0.92     6.85     0  01:55        0.92
  WS02004404           JUNCTION     0.73     1.02     6.87     0  01:55        1.00
  WS02004405           JUNCTION     0.72     0.96     6.81     0  03:15        0.96
  WS02004406           JUNCTION     0.73     0.96     6.79     0  03:15        0.96
  WS02004407           JUNCTION     0.18     0.30     6.61     0  03:16        0.30
  WS02004409           JUNCTION     0.40     0.67     6.44     0  03:16        0.67
  WS02004410           JUNCTION     0.43     0.68     6.40     0  03:16        0.68
  WS02004411           JUNCTION     0.45     0.69     6.37     0  03:17        0.69
  WS02004412           JUNCTION     0.47     0.70     6.34     0  03:17        0.70
  WS02004413           JUNCTION     0.63     0.86     6.33     0  03:17        0.86
  WS02006109           JUNCTION     0.65     1.43     8.04     0  01:46        1.08
  WS02006110           JUNCTION     0.65     1.57     8.15     0  01:46        1.00
  WS02006111           JUNCTION     0.18     0.29     7.00     0  01:41        0.29
  WS02006112           JUNCTION     0.76     1.08     6.97     0  03:19        1.07
  WS02006113           JUNCTION     0.27     0.47     7.36     0  01:41        0.46
  WS02006115           JUNCTION     0.48     0.77     6.91     0  03:15        0.77
  WS02006116           JUNCTION     0.57     0.85     6.89     0  03:14        0.85
  WS02006228           JUNCTION     0.64     1.25     7.90     0  01:46        1.11
  WS02006229           JUNCTION     0.61     1.25     7.94     0  01:41        1.13
  WS02006230           JUNCTION     0.61     1.42     8.17     0  01:41        1.24
  WS02006231           JUNCTION     0.43     1.67     8.79     0  01:41        1.67
  WS02006232           JUNCTION     0.56     2.13     9.17     0  01:41        2.13
  WS02006234           JUNCTION     0.49     1.96     9.12     0  01:41        1.96
  WS02006235           JUNCTION     0.52     2.00     9.16     0  01:41        2.00
  WS02006238           JUNCTION     0.55     2.15     9.29     0  01:41        2.15
  WS02006239           JUNCTION     0.52     2.03     9.24     0  01:41        2.03
  WS02006240           JUNCTION     0.49     2.10     9.39     0  01:41        2.10
  WS02006242           JUNCTION     0.57     1.55     8.82     0  01:41        1.55
  WS02006243           JUNCTION     0.47     1.48     8.90     0  01:41        1.48
  WS02006245           JUNCTION     0.48     1.36     8.85     0  01:41        1.36
  WS02006247           JUNCTION     0.51     1.31     8.81     0  01:41        1.31
  WS02006248           JUNCTION     0.47     1.10     8.69     0  01:40        1.10
  WS02006249           JUNCTION     0.50     1.09     8.69     0  01:39        1.09
  WS02006251           JUNCTION     0.50     1.38     9.05     0  03:18        1.25
  WS02006252           JUNCTION     0.36     1.50     9.74     0  00:00        0.82
  WS02006256           JUNCTION     0.96     2.35     9.28     0  00:00        2.35
  WSF200               JUNCTION     0.17     0.29     5.52     0  03:17        0.29
  YS02001580           JUNCTION     0.12     1.05     9.59     0  01:31        0.93
  YS02001583           JUNCTION     0.16     1.14     9.64     0  01:31        0.82
  YS02001586           JUNCTION     0.23     1.13     9.30     0  01:31        1.13
  YS02001590           JUNCTION     0.33     1.40     9.26     0  01:31        1.40
  YS02001593           JUNCTION     0.27     1.39     9.25     0  02:42        1.29
  YS02001596           JUNCTION     0.36     1.74     9.16     0  02:42        1.66
  YS02001600           JUNCTION     0.42     1.87     9.00     0  01:31        1.86
  YS02001601           JUNCTION     0.60     2.06     8.90     0  01:30        2.06
  YS02001602           JUNCTION     0.51     1.87     8.77     0  01:31        1.87
  YS02001605           JUNCTION     0.48     1.78     8.68     0  01:31        1.78
  YS02001607           JUNCTION     0.48     1.68     8.53     0  01:41        1.68
  YS02001610           JUNCTION     0.52     1.68     8.48     0  01:31        1.68
  YS02001613           JUNCTION     0.48     1.70     8.54     0  01:31        1.67
  YS02001616           JUNCTION     0.41     1.61     8.52     0  01:31        1.61
  YS02001619           JUNCTION     0.39     1.61     8.54     0  01:31        1.61
  YS02001622           JUNCTION     0.38     1.62     8.52     0  01:31        1.62
  YS02001625           JUNCTION     0.65     1.78     8.38     0  01:31        1.78
  YS02001629           JUNCTION     0.50     1.85     8.40     0  01:31        1.85
  YS02001633           JUNCTION     0.59     2.08     8.53     0  01:33        2.08
  YS02001641           JUNCTION     0.57     2.10     8.54     0  02:42        2.10
  YS02001644           JUNCTION     0.57     1.92     8.35     0  01:33        1.92
  YS02001647           JUNCTION     0.36     1.90     8.51     0  01:33        1.90
  YS02001649           JUNCTION     0.41     2.05     8.44     0  01:35        2.05
  YS02001652           JUNCTION     0.31     2.16     8.76     0  01:34        1.95
  YS02001655           JUNCTION     0.25     2.20     9.05     0  01:34        1.80
  YS02001658           JUNCTION     0.19     2.30     9.44     0  01:34        1.58
  YS02001661           JUNCTION     0.19     2.46     9.86     0  01:35        1.39
  YS02001664           JUNCTION     0.06     1.76     9.69     0  01:35        0.87
  YS02001745           JUNCTION     0.10     2.35     9.87     0  01:35        1.12
  YS02001748           JUNCTION     0.18     2.27     9.35     0  01:34        1.41
  YS02001751           JUNCTION     0.22     2.20     9.08     0  01:34        1.69
  YS02001754           JUNCTION     0.29     2.20     8.81     0  01:34        1.90
  YS02001757           JUNCTION     0.45     2.21     8.47     0  01:35        2.15
  YS02001759           JUNCTION     0.39     2.21     8.57     0  01:37        2.21
  YS02001762           JUNCTION     0.38     2.15     8.55     0  01:35        2.14
  YS02001765           JUNCTION     0.36     2.10     8.55     0  01:35        2.06
  YS02001767           JUNCTION     0.35     2.03     8.52     0  01:33        2.03
  YS02001770           JUNCTION     0.36     1.95     8.44     0  01:33        1.95
  YS02001774           JUNCTION     0.43     2.05     8.47     0  01:33        2.05
  YS02001779           JUNCTION     0.27     1.68     8.37     0  01:33        1.68
  YS02001783           JUNCTION     0.25     1.67     7.81     0  01:33        1.28
  YS02001784           JUNCTION     0.26     1.37     7.43     0  01:33        1.14
  YS02001786           JUNCTION     0.22     1.06     7.09     0  01:33        0.88
  YS02001788           JUNCTION     0.16     0.63     6.61     0  01:37        0.63
  YS02001790           JUNCTION     0.18     0.74     6.38     0  01:36        0.73
  YS02001791           JUNCTION     0.12     0.44     5.91     0  01:37        0.43
  YS02001793           JUNCTION     0.06     0.31     5.14     0  01:37        0.29
  YS02001882           JUNCTION     0.33     1.83     8.55     0  01:32        1.78
  YS02001884           JUNCTION     0.42     1.91     8.53     0  01:41        1.89
  YS02001887           JUNCTION     0.50     2.00     8.54     0  01:36        2.00
  YS02001890           JUNCTION     0.53     1.81     8.32     0  01:32        1.81
  YS02001895           JUNCTION     0.30     1.75     8.50     0  01:32        1.67
  YS02001898           JUNCTION     0.30     1.77     8.51     0  01:32        1.56
  YS02001901           JUNCTION     0.42     1.87     8.48     0  01:32        1.67
  YS02001904           JUNCTION     0.40     1.83     8.46     0  01:32        1.64
  YS02001907           JUNCTION     0.73     1.96     8.25     0  01:32        1.96
  YS02001910           JUNCTION     0.53     2.10     8.61     0  01:41        2.10
  YS02001915           JUNCTION     0.34     2.00     8.72     0  01:32        2.00
  YS02001918           JUNCTION     0.20     1.81     8.88     0  01:34        1.80
  YS02001920           JUNCTION     0.27     2.09     9.10     0  01:34        1.93
  YS02001923           JUNCTION     0.15     2.03     9.29     0  01:34        1.74
  YS02001926           JUNCTION     0.18     1.90     9.35     0  01:34        1.62
  YS02001929           JUNCTION     0.11     1.78     9.47     0  01:34        1.44
  YS02006553           JUNCTION     0.73     2.10     8.38     0  01:33        2.04
  YS02006556           JUNCTION     0.70     2.21     8.52     0  01:33        2.09
  YS02006558           JUNCTION     0.75     2.29     8.56     0  01:33        2.22
  YS02006561           JUNCTION     0.16     1.53     8.19     0  01:33        0.93
  YS02163301           JUNCTION     0.53     1.96     8.48     0  01:38        1.96
  YS02163601           JUNCTION     0.63     2.08     8.48     0  01:33        2.08
  YS02164001           JUNCTION     0.56     2.10     8.56     0  02:42        2.10
  CC-1                 OUTFALL      0.00     0.00     0.00     0  00:00        0.00
  CC-2                 OUTFALL      0.00     0.00     0.00     0  00:00        0.00
  JK-1                 OUTFALL      0.00     0.00     0.00     0  00:00        0.00
  JK-2                 OUTFALL      0.00     0.00     0.00     0  00:00        0.00
  WSC                  OUTFALL      0.19     0.30     0.97     0  03:20        0.30
  CC-storage           STORAGE      1.02     1.92     7.42     0  02:24        1.92
  JK-storage           STORAGE      3.39     4.23     5.03     0  01:40        4.20
  
  
  *******************
  Node Inflow Summary
  *******************
  
  -------------------------------------------------------------------------------------------------
                                  Maximum  Maximum                  Lateral       Total        Flow
                                  Lateral    Total  Time of Max      Inflow      Inflow     Balance
                                   Inflow   Inflow   Occurrence      Volume      Volume       Error
  Node                 Type           LPS      LPS  days hr:min    10^6 ltr    10^6 ltr     Percent
  -------------------------------------------------------------------------------------------------
  WS02003060           JUNCTION     16.53   551.56     0  03:18       0.476        6.54       0.067
  WS02003066           JUNCTION      0.00   534.89     0  03:17           0        6.07       0.036
  WS02003067           JUNCTION      0.00   534.84     0  03:17           0        6.08       0.087
  WS02003069           JUNCTION      0.32   551.93     0  03:18     0.00922        6.55       0.115
  WS02003072           JUNCTION      0.00   551.82     0  03:19           0        6.54       0.184
  WS02003073           JUNCTION      1.82   553.44     0  03:19      0.0524        6.58       0.178
  WS02004401           JUNCTION      0.00   540.68     0  02:07           0         6.2       0.186
  WS02004402           JUNCTION      0.00   540.40     0  02:07           0        6.18       0.187
  WS02004403           JUNCTION      0.00   540.09     0  02:07           0        6.17       0.179
  WS02004404           JUNCTION      0.16   556.08     0  01:55     0.00467        6.17       0.156
  WS02004405           JUNCTION      0.04   604.89     0  01:55      0.0011        6.16       0.147
  WS02004406           JUNCTION      0.00   542.28     0  03:15           0        6.15       0.365
  WS02004407           JUNCTION      0.00   537.67     0  03:15           0        6.13       0.033
  WS02004409           JUNCTION      0.00   537.02     0  03:16           0        6.12       0.082
  WS02004410           JUNCTION      0.00   535.82     0  03:15           0        6.12       0.115
  WS02004411           JUNCTION      0.00   535.67     0  03:16           0        6.11       0.135
  WS02004412           JUNCTION      0.00   535.07     0  03:16           0         6.1       0.168
  WS02004413           JUNCTION      0.00   534.94     0  03:17           0        6.09       0.280
  WS02006109           JUNCTION      1.23   582.82     0  01:41      0.0354        6.24       0.039
  WS02006110           JUNCTION      0.00   580.98     0  01:41           0        6.24       0.127
  WS02006111           JUNCTION      0.00   579.60     0  01:41           0        6.23       0.017
  WS02006112           JUNCTION      0.00   555.95     0  01:41           0        6.23       0.299
  WS02006113           JUNCTION      0.00   597.31     0  01:41           0        6.23       0.036
  WS02006115           JUNCTION      0.00   554.71     0  02:46           0        6.21       0.129
  WS02006116           JUNCTION      0.00   543.58     0  02:38           0         6.2       0.116
  WS02006228           JUNCTION      0.00   583.32     0  01:41           0        6.21       0.001
  WS02006229           JUNCTION      0.00   582.13     0  01:41           0        6.22       0.125
  WS02006230           JUNCTION     10.28   590.73     0  02:05       0.296        6.22       0.064
  WS02006231           JUNCTION      0.00   580.31     0  02:21           0        5.92      -0.094
  WS02006232           JUNCTION      0.00   579.55     0  02:21           0        5.93       0.247
  WS02006234           JUNCTION      0.00   574.73     0  02:21           0        5.92      -0.210
  WS02006235           JUNCTION      0.00   566.89     0  02:21           0        5.99       0.196
  WS02006238           JUNCTION      0.00   425.38     0  02:35           0        4.92      -0.291
  WS02006239           JUNCTION      0.00   424.07     0  02:35           0        4.88      -0.258
  WS02006240           JUNCTION      0.00   421.99     0  03:30           0        4.85      -0.068
  WS02006242           JUNCTION      0.00   422.90     0  03:30           0        4.82       0.075
  WS02006243           JUNCTION      0.00   424.09     0  03:30           0        4.81       0.062
  WS02006245           JUNCTION      0.00   425.26     0  03:30           0        4.83       0.480
  WS02006247           JUNCTION      0.00   426.04     0  03:30           0        4.83       0.019
  WS02006248           JUNCTION      0.00   427.55     0  03:30           0        4.83       0.113
  WS02006249           JUNCTION      0.00   463.18     0  01:15           0        5.13       0.382
  WS02006251           JUNCTION      0.08   407.19     0  01:39     0.00222        5.13      -0.025
  WS02006252           JUNCTION      0.00   400.00     0  00:00           0        5.12      -0.053
  WS02006256           JUNCTION      0.00   300.00     0  00:00           0        1.62      -1.028
  WSF200               JUNCTION      0.00   534.91     0  03:17           0        6.07       0.020
  YS02001580           JUNCTION      0.00   130.20     0  01:31           0     0.00504       1.050
  YS02001583           JUNCTION      0.00   203.45     0  01:31           0      0.0157      -7.312
  YS02001586           JUNCTION   1117.89  1117.95     0  01:42         2.8        2.81       0.053
  YS02001590           JUNCTION      0.00   319.56     0  01:41           0        1.78      -0.016
  YS02001593           JUNCTION      0.00   319.31     0  01:41           0        1.78       0.015
  YS02001596           JUNCTION      0.00   318.23     0  01:56           0        1.78      -0.012
  YS02001600           JUNCTION      0.00   318.30     0  01:41           0        1.78       0.017
  YS02001601           JUNCTION   2028.83  2346.32     0  01:40        3.77        5.55       0.007
  YS02001602           JUNCTION      0.00   570.89     0  01:31           0        2.81       0.017
  YS02001605           JUNCTION      0.00   556.95     0  01:31           0        2.59       0.024
  YS02001607           JUNCTION      0.00   556.23     0  01:31           0        2.59       0.062
  YS02001610           JUNCTION      0.00   954.05     0  01:47           0         3.3       0.055
  YS02001613           JUNCTION      0.00   617.37     0  01:47           0        2.49       0.046
  YS02001616           JUNCTION      0.00   626.51     0  01:41           0        2.49       0.013
  YS02001619           JUNCTION   1993.77  1993.77     0  01:41        4.51        6.28      -0.005
  YS02001622           JUNCTION      0.00  1053.88     0  01:41           0        5.43      -0.006
  YS02001625           JUNCTION      0.00  1505.01     0  01:47           0        5.89       0.164
  YS02001629           JUNCTION      0.00   948.38     0  01:31           0        4.11      -0.005
  YS02001633           JUNCTION   1523.31  1523.31     0  01:40        2.77        6.18       0.052
  YS02001641           JUNCTION      0.00  1429.33     0  01:33           0         5.5       0.046
  YS02001644           JUNCTION   1359.81  2373.21     0  01:39        2.41        7.97       0.037
  YS02001647           JUNCTION      0.00  1900.57     0  01:33           0        6.42       0.003
  YS02001649           JUNCTION      0.00  2154.98     0  01:33           0        8.58      -0.003
  YS02001652           JUNCTION      0.00  1329.51     0  01:39           0        2.23      -0.093
  YS02001655           JUNCTION      0.15  1328.99     0  01:39     0.00443        2.23      -0.033
  YS02001658           JUNCTION      0.00  1329.13     0  01:39           0        2.23      -0.046
  YS02001661           JUNCTION      0.00  1329.37     0  01:39           0        2.23      -0.005
  YS02001664           JUNCTION   1329.16  1329.16     0  01:39        2.22        2.22      -0.030
  YS02001745           JUNCTION    859.69   859.69     0  01:38        1.32        1.33       0.133
  YS02001748           JUNCTION      0.04   866.75     0  01:38      0.0013        1.33      -0.267
  YS02001751           JUNCTION      0.01   867.73     0  01:38    0.000317        1.34       0.048
  YS02001754           JUNCTION      0.26   867.22     0  01:38     0.00749        1.35      -0.142
  YS02001757           JUNCTION      0.00  3530.55     0  01:35           0        13.7       0.030
  YS02001759           JUNCTION   1192.00  1559.13     0  01:35        1.84        3.81      -0.012
  YS02001762           JUNCTION      0.00   881.54     0  01:35           0        1.98      -0.006
  YS02001765           JUNCTION      0.00   881.65     0  01:35           0        1.98      -0.009
  YS02001767           JUNCTION      0.54   882.66     0  01:35      0.0154        1.98      -0.007
  YS02001770           JUNCTION   1677.99  1677.99     0  01:39        2.78        2.83      -0.027
  YS02001774           JUNCTION      0.00   852.09     0  01:43           0       0.718       0.137
  YS02001779           JUNCTION      0.01   851.70     0  01:43    0.000144       0.671      -0.078
  YS02001783           JUNCTION      0.00  1180.59     0  01:36           0        5.41       0.003
  YS02001784           JUNCTION      1.06  1180.14     0  01:37      0.0305        5.44       0.007
  YS02001786           JUNCTION      0.06  1179.82     0  01:38     0.00162        5.44       0.013
  YS02001788           JUNCTION      0.07  1180.85     0  01:37     0.00204        5.44       0.005
  YS02001790           JUNCTION      0.15  1193.81     0  01:37     0.00446        5.45       0.027
  YS02001791           JUNCTION      0.00  1310.31     0  01:37           0        5.44      -0.033
  YS02001793           JUNCTION      0.00  1278.37     0  01:37           0        5.45       0.002
  YS02001882           JUNCTION      0.00   114.75     0  01:32           0      0.0142       4.271
  YS02001884           JUNCTION      0.00   122.44     0  01:32           0      0.0508       5.002
  YS02001887           JUNCTION   1301.61  1301.77     0  01:38         1.9        1.93       0.219
  YS02001890           JUNCTION      0.00  1303.07     0  01:38           0        1.89       0.253
  YS02001895           JUNCTION      0.00   536.45     0  01:33           0        1.51       0.116
  YS02001898           JUNCTION      0.00   536.84     0  01:33           0        1.51      -0.010
  YS02001901           JUNCTION      0.00   536.60     0  01:33           0        1.51       0.217
  YS02001904           JUNCTION      0.00   537.00     0  01:33           0        1.52       0.163
  YS02001907           JUNCTION      0.00  3061.69     0  01:38           0        5.79       0.287
  YS02001910           JUNCTION      0.00  1993.20     0  01:41           0        4.08       0.173
  YS02001915           JUNCTION   1472.96  2187.49     0  01:40        2.65        4.17       0.033
  YS02001918           JUNCTION      0.00   717.07     0  01:40           0        1.56       0.008
  YS02001920           JUNCTION      2.87   716.31     0  01:40      0.0827        1.54       0.054
  YS02001923           JUNCTION      0.04   715.99     0  01:41     0.00109        1.44      -0.032
  YS02001926           JUNCTION      0.05   967.83     0  01:33      0.0015        1.42      -0.007
  YS02001929           JUNCTION    711.23   792.59     0  01:33        1.39         1.4      -0.034
  YS02006553           JUNCTION      0.00   790.75     0  02:09           0        3.06       0.389
  YS02006556           JUNCTION      0.00   790.96     0  02:08           0        3.07       0.254
  YS02006558           JUNCTION   1720.14  1720.14     0  01:39        2.79        5.64       0.056
  YS02006561           JUNCTION      0.00  1178.88     0  01:37           0        5.41      -0.001
  YS02163301           JUNCTION      0.00   922.38     0  01:33           0         4.1       0.035
  YS02163601           JUNCTION      0.11  1430.67     0  01:33     0.00317         5.5       0.086
  YS02164001           JUNCTION      0.00  1430.38     0  01:33           0         5.5       0.037
  CC-1                 OUTFALL       0.00   683.00     0  00:00           0        4.79       0.000
  CC-2                 OUTFALL       0.00   683.00     0  00:00           0         4.2       0.000
  JK-1                 OUTFALL       0.00  1000.00     0  00:00           0        3.48       0.000
  JK-2                 OUTFALL       0.00  1000.00     0  00:00           0       0.348       0.000
  WSC                  OUTFALL       0.00   553.06     0  03:20           0        6.57       0.000
  CC-storage           STORAGE       0.00  3528.66     0  01:35           0        15.9      -0.135
  JK-storage           STORAGE       0.00  1255.67     0  01:34           0         5.6      -0.009
  
  
  **********************
  Node Surcharge Summary
  **********************
  
  Surcharging occurs when water rises above the top of the highest conduit.
  ---------------------------------------------------------------------
                                               Max. Height   Min. Depth
                                   Hours       Above Crown    Below Rim
  Node                 Type      Surcharged         Meters       Meters
  ---------------------------------------------------------------------
  WS02004404           JUNCTION        0.01          0.020        2.760
  WS02006109           JUNCTION        2.46          0.606        1.214
  WS02006110           JUNCTION        0.87          0.657        1.193
  WS02006112           JUNCTION        1.21          0.084        1.596
  WS02006228           JUNCTION        2.46          0.418        1.782
  WS02006229           JUNCTION        2.46          0.447        2.003
  WS02006230           JUNCTION        0.87          0.344        1.226
  WS02006231           JUNCTION        1.13          0.956        0.574
  WS02006232           JUNCTION        2.48          1.427        0.053
  WS02006234           JUNCTION        1.67          1.240        0.000
  WS02006235           JUNCTION        2.40          1.290        0.000
  WS02006238           JUNCTION        2.46          1.430        0.000
  WS02006239           JUNCTION        2.43          1.290        0.000
  WS02006240           JUNCTION        2.46          1.390        0.000
  WS02006242           JUNCTION        2.47          0.820        0.000
  WS02006243           JUNCTION        2.45          0.770        0.000
  WS02006245           JUNCTION        2.45          0.651        0.199
  WS02006247           JUNCTION        2.45          0.598        0.162
  WS02006248           JUNCTION        2.44          0.380        0.000
  WS02006249           JUNCTION        2.44          0.390        0.000
  WS02006251           JUNCTION        1.25          0.354        0.826
  WS02006252           JUNCTION        2.84          1.100        0.000
  WS02006256           JUNCTION        7.06          2.050        0.000
  YS02001580           JUNCTION        1.00          0.450        0.000
  YS02001583           JUNCTION        1.01          0.500        0.000
  YS02001586           JUNCTION        1.25          0.510        0.000
  YS02001590           JUNCTION        1.35          0.750        0.000
  YS02001593           JUNCTION        1.36          0.768        0.072
  YS02001596           JUNCTION        1.51          1.006        0.064
  YS02001600           JUNCTION        1.64          1.190        0.000
  YS02001601           JUNCTION        1.84          1.440        0.000
  YS02001602           JUNCTION        1.78          1.270        0.000
  YS02001605           JUNCTION        1.75          1.180        0.000
  YS02001607           JUNCTION        1.39          0.680        0.000
  YS02001610           JUNCTION        1.43          0.680        0.000
  YS02001613           JUNCTION        1.39          0.695        0.005
  YS02001616           JUNCTION        1.33          0.610        0.000
  YS02001619           JUNCTION        1.32          0.610        0.000
  YS02001622           JUNCTION        1.32          0.620        0.000
  YS02001625           JUNCTION        1.54          0.780        0.000
  YS02001629           JUNCTION        1.25          0.470        0.000
  YS02001633           JUNCTION        1.57          1.060        0.000
  YS02001641           JUNCTION        1.54          1.100        0.000
  YS02001644           JUNCTION        1.52          0.920        0.000
  YS02001647           JUNCTION        1.30          0.900        0.000
  YS02001649           JUNCTION        1.48          1.050        0.000
  YS02001652           JUNCTION        1.22          1.130        0.000
  YS02001655           JUNCTION        0.97          1.200        0.000
  YS02001658           JUNCTION        0.49          1.300        0.000
  YS02001661           JUNCTION        0.18          1.390        0.000
  YS02001664           JUNCTION        0.01          0.765        0.545
  YS02001745           JUNCTION        0.01          1.350        0.000
  YS02001748           JUNCTION        0.38          1.190        0.000
  YS02001751           JUNCTION        0.78          1.200        0.000
  YS02001754           JUNCTION        1.14          1.150        0.000
  YS02001757           JUNCTION        1.53          1.210        0.000
  YS02001759           JUNCTION        1.46          1.206        0.004
  YS02001762           JUNCTION        1.42          1.150        0.000
  YS02001765           JUNCTION        1.37          1.099        0.001
  YS02001767           JUNCTION        1.33          1.030        0.000
  YS02001770           JUNCTION        1.29          0.920        0.000
  YS02001774           JUNCTION        1.40          1.050        0.000
  YS02001779           JUNCTION        1.10          0.680        0.000
  YS02001783           JUNCTION        0.83          0.866        0.734
  YS02001784           JUNCTION        0.80          0.565        0.925
  YS02001786           JUNCTION        0.67          0.257        1.173
  YS02001882           JUNCTION        0.75          0.830        0.000
  YS02001884           JUNCTION        0.77          0.854        0.016
  YS02001887           JUNCTION        0.81          0.949        0.001
  YS02001890           JUNCTION        0.83          0.760        0.000
  YS02001895           JUNCTION        0.74          0.750        0.000
  YS02001898           JUNCTION        0.73          0.740        0.000
  YS02001901           JUNCTION        0.80          0.870        0.000
  YS02001904           JUNCTION        0.78          0.830        0.020
  YS02001907           JUNCTION        1.09          0.950        0.000
  YS02001910           JUNCTION        0.86          1.100        0.000
  YS02001915           JUNCTION        0.75          1.000        0.000
  YS02001918           JUNCTION        0.65          0.810        0.000
  YS02001920           JUNCTION        0.66          1.091        0.049
  YS02001923           JUNCTION        0.27          0.820        0.000
  YS02001926           JUNCTION        0.30          0.900        0.000
  YS02001929           JUNCTION        0.16          0.780        0.000
  YS02006553           JUNCTION        1.13          1.095        0.095
  YS02006556           JUNCTION        0.97          1.174        0.176
  YS02006558           JUNCTION        0.96          1.192        0.208
  YS02006561           JUNCTION        0.61          0.733        0.417
  YS02163301           JUNCTION        1.55          0.964        0.066
  YS02163601           JUNCTION        1.59          1.080        0.000
  YS02164001           JUNCTION        1.54          1.100        0.000
  
  
  *********************
  Node Flooding Summary
  *********************
  
  Flooding refers to all water that overflows a node, whether it ponds or not.
  --------------------------------------------------------------------------
                                                             Total   Maximum
                                 Maximum   Time of Max       Flood    Ponded
                        Hours       Rate    Occurrence      Volume     Depth
  Node                 Flooded       LPS   days hr:min    10^6 ltr    Meters
  --------------------------------------------------------------------------
  WS02006234              0.01      1.27      0  01:41       0.000     0.000
  WS02006235              0.01      2.18      0  01:41       0.000     0.000
  WS02006238              0.01      1.66      0  01:41       0.000     0.000
  WS02006239              0.01      0.77      0  01:41       0.000     0.000
  WS02006240              0.01      0.61      0  01:41       0.000     0.000
  WS02006242              0.01     14.49      0  01:41       0.000     0.000
  WS02006243              0.01      0.47      0  01:41       0.000     0.000
  WS02006248              0.02     19.74      0  01:41       0.001     0.000
  WS02006249              1.20    103.70      0  01:41       0.280     0.000
  WS02006252              0.01    245.63      0  00:00       0.000     0.000
  WS02006256              1.50    293.19      0  00:00       0.528     0.000
  YS02001580              0.01    115.40      0  01:31       0.001     0.000
  YS02001583              0.01    155.46      0  01:31       0.000     0.000
  YS02001586              0.83    800.48      0  01:42       1.019     0.000
  YS02001590              0.01      3.87      0  01:31       0.000     0.000
  YS02001600              0.01      7.81      0  02:42       0.000     0.000
  YS02001601              1.15   1948.47      0  01:40       2.739     0.000
  YS02001602              1.07     61.97      0  02:16       0.218     0.000
  YS02001605              0.01      2.24      0  01:31       0.000     0.000
  YS02001607              0.01      0.12      0  01:41       0.000     0.000
  YS02001610              0.93    953.81      0  01:47       1.522     0.000
  YS02001616              0.09     15.07      0  01:41       0.001     0.000
  YS02001619              0.19    331.13      0  01:41       0.133     0.000
  YS02001622              0.01    285.06      0  01:31       0.001     0.000
  YS02001625              0.91   1504.80      0  01:47       2.452     0.000
  YS02001629              0.25    525.56      0  01:38       0.244     0.000
  YS02001633              0.01      4.71      0  01:33       0.000     0.000
  YS02001641              0.01      1.39      0  02:42       0.000     0.000
  YS02001644              0.39   2372.77      0  01:39       1.609     0.000
  YS02001647              0.01     84.89      0  01:33       0.000     0.000
  YS02001649              0.01    238.71      0  01:35       0.004     0.000
  YS02001652              0.01     81.66      0  01:34       0.000     0.000
  YS02001655              0.01    405.08      0  01:34       0.001     0.000
  YS02001658              0.01    565.67      0  01:35       0.001     0.000
  YS02001661              0.01    382.75      0  01:35       0.000     0.000
  YS02001745              0.01    191.25      0  01:35       0.000     0.000
  YS02001748              0.01    553.76      0  01:35       0.001     0.000
  YS02001751              0.01    226.06      0  01:34       0.000     0.000
  YS02001754              0.01     55.67      0  01:34       0.000     0.000
  YS02001757              0.01     22.63      0  01:35       0.000     0.000
  YS02001762              0.01      5.27      0  01:35       0.000     0.000
  YS02001767              0.01    148.59      0  01:33       0.000     0.000
  YS02001770              0.15    565.93      0  01:39       0.169     0.000
  YS02001774              0.01    128.60      0  01:33       0.000     0.000
  YS02001779              0.35    851.40      0  01:42       0.651     0.000
  YS02001882              0.01    109.13      0  01:32       0.000     0.000
  YS02001890              0.29    785.74      0  01:38       0.374     0.000
  YS02001895              0.01     67.85      0  01:32       0.000     0.000
  YS02001898              0.01    161.90      0  01:32       0.000     0.000
  YS02001901              0.01     14.35      0  01:32       0.000     0.000
  YS02001907              0.58   3061.63      0  01:39       2.914     0.000
  YS02001910              0.01      0.27      0  01:41       0.000     0.000
  YS02001915              0.10    214.35      0  01:32       0.041     0.000
  YS02001918              0.01    157.92      0  01:34       0.002     0.000
  YS02001923              0.01     84.81      0  01:34       0.000     0.000
  YS02001926              0.01    779.26      0  01:34       0.005     0.000
  YS02001929              0.01    579.02      0  01:34       0.001     0.000
  YS02163601              0.01     11.93      0  01:33       0.000     0.000
  YS02164001              0.01      1.99      0  02:42       0.000     0.000
  
  
  **********************
  Storage Volume Summary
  **********************
  
  ------------------------------------------------------------------------------------------------
                         Average    Avg   Evap  Exfil     Maximum    Max    Time of Max    Maximum
                          Volume   Pcnt   Pcnt   Pcnt      Volume   Pcnt     Occurrence    Outflow
  Storage Unit           1000 m³   Full   Loss   Loss     1000 m³   Full    days hr:min        LPS
  ------------------------------------------------------------------------------------------------
  CC-storage               2.855   44.5    0.0    0.0       5.344   83.4       0  02:24    1783.53
  JK-storage               0.170   58.4    0.0    0.0       0.213   73.0       0  01:40    2300.00
  
  
  ***********************
  Outfall Loading Summary
  ***********************
  
  -----------------------------------------------------------
                         Flow       Avg       Max       Total
                         Freq      Flow      Flow      Volume
  Outfall Node           Pcnt       LPS       LPS    10^6 ltr
  -----------------------------------------------------------
  CC-1                  23.55    683.00    683.00       4.787
  CC-2                  20.97    683.00    683.00       4.200
  JK-1                  13.12   1000.00   1000.00       3.482
  JK-2                   1.15   1000.00   1000.00       0.348
  WSC                   99.96    261.83    553.06       6.570
  -----------------------------------------------------------
  System                31.75   3627.83   3366.23      19.387
  
  
  ********************
  Link Flow Summary
  ********************
  
  -----------------------------------------------------------------------------
                                 Maximum  Time of Max   Maximum    Max/    Max/
                                  |Flow|   Occurrence   |Veloc|    Full    Full
  Link                 Type          LPS  days hr:min     m/sec    Flow   Depth
  -----------------------------------------------------------------------------
  1                    CONDUIT    553.06     0  03:20      2.82    0.19    0.30
  WS02003060WS02003069 CONDUIT    551.61     0  03:18      1.64    0.22    0.34
  WS02003066WSF200     CONDUIT    534.91     0  03:17      2.85    0.09    0.22
  WS02003067WS02003066 CONDUIT    534.89     0  03:17      1.20    0.17    0.42
  WS02003069WS02003072 CONDUIT    551.82     0  03:19      1.37    0.27    0.39
  WS02003072WS02003073 CONDUIT    551.62     0  03:19      1.43    1.19    0.37
  WS02004401WS02004402 CONDUIT    540.40     0  02:07      0.98    0.65    0.89
  WS02004402WS02004403 CONDUIT    540.09     0  02:07      0.97    0.78    0.91
  WS02004403WS02004404 CONDUIT    555.92     0  01:55      0.92    0.40    0.96
  WS02004404WS02004405 CONDUIT    604.85     0  01:55      1.08    5.93    0.98
  WS02004405WS02004406 CONDUIT    542.28     0  03:15      0.99    1.07    0.96
  WS02004406WS02004407 CONDUIT    537.67     0  03:15      1.04    0.24    0.63
  WS02004407WS02004409 CONDUIT    537.02     0  03:16      1.53    0.19    0.48
  WS02004409WS02004410 CONDUIT    535.82     0  03:15      1.00    0.69    0.67
  WS02004410WS02004411 CONDUIT    535.67     0  03:16      0.95    0.73    0.68
  WS02004411WS02004412 CONDUIT    535.07     0  03:16      0.92    0.76    0.69
  WS02004412WS02004413 CONDUIT    534.94     0  03:17      0.82    0.36    0.78
  WS02004413WS02003067 CONDUIT    534.84     0  03:17      1.11    0.23    0.59
  WS02006109WS02006110 CONDUIT    580.98     0  01:41      1.16    1.12    1.00
  WS02006110WS02006113 CONDUIT    597.31     0  01:41      1.42    0.54    0.79
  WS02006111WS02006112 CONDUIT    555.95     0  01:41      1.81    0.26    0.68
  WS02006112WS02006115 CONDUIT    554.71     0  02:46      0.85    0.33    0.88
  WS02006113WS02006111 CONDUIT    579.60     0  01:41      2.49    0.69    0.47
  WS02006115WS02006116 CONDUIT    543.58     0  02:38      1.03    0.70    0.78
  WS02006116WS02004401 CONDUIT    540.68     0  02:07      0.98    0.75    0.86
  WS02006228WS02006109 CONDUIT    581.59     0  01:41      1.16    2.54    1.00
  WS02006229WS02006228 CONDUIT    583.32     0  01:41      1.16    1.93    1.00
  WS02006230WS02006229 CONDUIT    582.13     0  01:41      1.51   12.95    1.00
  WS02006231WS02006230 CONDUIT    580.45     0  02:05      1.58    8.80    1.00
  WS02006232WS02006231 CONDUIT    580.31     0  02:21      1.51    1.22    1.00
  WS02006234WS02006232 CONDUIT    579.55     0  02:21      1.51    1.17    1.00
  WS02006235WS02006234 CONDUIT    574.73     0  02:21      1.49    6.06    1.00
  WS02006238WS02006235 CONDUIT    426.55     0  02:35      1.45    0.95    1.00
  WS02006239WS02006238 CONDUIT    425.38     0  02:35      1.19    1.36    1.00
  WS02006240WS02006239 CONDUIT    424.07     0  02:35      1.30    1.33    1.00
  WS02006242WS02006240 CONDUIT    421.99     0  03:30      1.18    1.68    1.00
  WS02006243WS02006242 CONDUIT    422.90     0  03:30      1.44    0.90    1.00
  WS02006245WS02006243 CONDUIT    424.09     0  03:30      1.45    1.25    1.00
  WS02006247WS02006245 CONDUIT    425.26     0  03:30      1.43    3.37    1.00
  WS02006248WS02006247 CONDUIT    426.04     0  03:30      1.44    0.93    1.00
  WS02006249WS02006248 CONDUIT    427.55     0  03:30      1.38    2.34    1.00
  WS02006251WS02006249 CONDUIT    463.18     0  01:15      1.99    1.34    1.00
  WS02006252WS02006251 CONDUIT    407.11     0  01:39     26.55    1.49    1.00
  WS02006256WS02006235 CONDUIT    288.91     0  00:00      4.23    3.06    1.00
  WSF200WS02003060     CONDUIT    535.03     0  03:18      2.06    0.12    0.28
  YS02001580YS02001583 CONDUIT    130.20     0  01:31      0.78    0.50    1.00
  YS02001583YS02001586 CONDUIT    172.73     0  01:31      0.79    0.26    1.00
  YS02001586YS02001590 CONDUIT    319.56     0  01:41      1.26    0.56    1.00
  YS02001590YS02001593 CONDUIT    319.31     0  01:41      1.13    2.00    1.00
  YS02001593YS02001596 CONDUIT    318.23     0  01:56      1.69    0.50    1.00
  YS02001596YS02001600 CONDUIT    318.30     0  01:41      1.24    0.62    1.00
  YS02001600YS02001601 CONDUIT    318.53     0  01:41      1.13    0.55    1.00
  YS02001601YS02001602 CONDUIT    570.89     0  01:31      2.02    2.06    1.00
  YS02001602YS02001605 CONDUIT    556.95     0  01:31      1.97   11.79    1.00
  YS02001605YS02001607 CONDUIT    556.23     0  01:31      1.97    3.05    1.00
  YS02001607YS02001610 CONDUIT    542.62     0  01:31      0.69    0.52    1.00
  YS02001610YS02001613 CONDUIT    617.87     0  01:47      0.79    0.71    1.00
  YS02001613YS02001616 CONDUIT    617.37     0  01:47      0.79    0.53    1.00
  YS02001616YS02001619 CONDUIT    626.51     0  01:41      0.80    1.09    1.00
  YS02001619YS02001622 CONDUIT   1053.88     0  01:41      1.34    1.55    1.00
  YS02001622YS02001625 CONDUIT   1053.68     0  01:45      1.34    0.56    1.00
  YS02001625YS02001629 CONDUIT    948.38     0  01:31      1.21    0.45    1.00
  YS02001629YS02163301 CONDUIT    922.38     0  01:33      1.17    1.14    1.00
  YS02001633YS02163601 CONDUIT   1430.56     0  01:33      1.82    1.50    1.00
  YS02001641YS02001644 CONDUIT   1429.40     0  01:33      1.82    4.62    1.00
  YS02001644YS02001647 CONDUIT   1900.57     0  01:33      2.42    1.12    1.00
  YS02001647YS02001649 CONDUIT   1879.63     0  01:33      2.39    0.99    1.00
  YS02001649YS02001757 CONDUIT   2148.61     0  01:33      2.74    1.30    1.00
  YS02001652YS02001649 CONDUIT   1329.17     0  01:39      1.69    0.66    1.00
  YS02001655YS02001652 CONDUIT   1329.51     0  01:39      1.69    0.65    1.00
  YS02001658YS02001655 CONDUIT   1328.84     0  01:39      1.99    0.56    1.00
  YS02001661YS02001658 CONDUIT   1329.13     0  01:39      2.40    0.52    1.00
  YS02001664YS02001661 CONDUIT   1329.37     0  01:39      2.49    0.42    1.00
  YS02001745YS02001748 CONDUIT    866.71     0  01:38      2.33    0.33    1.00
  YS02001748YS02001751 CONDUIT    867.72     0  01:38      1.82    0.44    1.00
  YS02001751YS02001754 CONDUIT    866.96     0  01:38      1.54    0.42    1.00
  YS02001754YS02001757 CONDUIT    867.41     0  01:38      1.10    0.35    1.00
  YS02001757CaochengTiaoxuchi CONDUIT   3528.66     0  01:35      4.49    1.53    1.00
  YS02001759YS02001757 CONDUIT   1559.02     0  01:35      1.98    1.11    1.00
  YS02001762YS02001759 CONDUIT    881.44     0  01:35      1.12    1.02    1.00
  YS02001765YS02001762 CONDUIT    881.54     0  01:35      1.12    0.83    1.00
  YS02001767YS02001765 CONDUIT    881.65     0  01:35      1.12    1.11    1.00
  YS02001770YS02001767 CONDUIT    882.13     0  01:35      1.12    3.49    1.00
  YS02001774YS02001770 CONDUIT    852.09     0  01:43      1.08    0.54    1.00
  YS02001779YS02001774 CONDUIT    851.69     0  01:43      1.08    0.43    1.00
  YS02001783YS02001784 CONDUIT   1179.08     0  01:37      2.35    1.63    1.00
  YS02001784YS02001785 CONDUIT   1179.76     0  01:38      2.35    2.75    1.00
  YS02001786YS02001788 CONDUIT   1180.78     0  01:37      2.51    2.28    0.89
  YS02001788YS02001790 CONDUIT   1193.65     0  01:37      2.74    0.88    0.85
  YS02001790YS02001791 CONDUIT   1310.31     0  01:37      3.44    1.43    0.71
  YS02001791YS02001793 CONDUIT   1278.37     0  01:37      6.71    0.55    0.45
  YS02001793JiankangQianchi CONDUIT   1255.67     0  01:34      2.52    0.10    0.65
  YS02001882YS02001884 CONDUIT    114.75     0  01:32      0.19    0.13    1.00
  YS02001884YS02001887 CONDUIT    122.44     0  01:32      0.16    0.16    1.00
  YS02001887YS02001890 CONDUIT   1303.07     0  01:38      1.66    2.23    1.00
  YS02001890YS02001895 CONDUIT    536.45     0  01:33      0.68    0.25    1.00
  YS02001895YS02001898 CONDUIT    536.84     0  01:33      0.68    0.93    1.00
  YS02001898YS02001901 CONDUIT    536.60     0  01:33      0.68    0.35    1.00
  YS02001901YS02001904 CONDUIT    537.00     0  01:33      0.68    0.83    1.00
  YS02001904YS02001907 CONDUIT    536.93     0  01:33      0.68    0.19    1.00
  YS02001907YS02006553 CONDUIT    790.75     0  02:09      0.88    0.93    1.00
  YS02001910YS02001907 CONDUIT   1993.02     0  01:42      2.54    1.12    1.00
  YS02001915YS02001910 CONDUIT   1993.20     0  01:41      2.54    0.99    1.00
  YS02001918YS02001915 CONDUIT    717.41     0  01:40      0.91    0.40    1.00
  YS02001920YS02001918 CONDUIT    717.07     0  01:40      0.91    0.69    1.00
  YS02001923YS02001920 CONDUIT    713.44     0  01:40      0.91    0.32    1.00
  YS02001926YS02001923 CONDUIT    746.92     0  01:33      1.18    1.07    1.00
  YS02001929YS02001926 CONDUIT    712.62     0  01:40      1.19    0.34    1.00
  YS02006553YS02006556 CONDUIT    790.96     0  02:08      1.01    0.68    1.00
  YS02006556YS02006558 CONDUIT    791.83     0  02:09      1.01    0.63    1.00
  YS02006558YS02006561 CONDUIT   1178.88     0  01:37      4.17    2.61    1.00
  YS02006561YS02001783 CONDUIT   1180.59     0  01:36      2.35    0.61    1.00
  YS02163301YS02001633 CONDUIT    922.64     0  01:33      1.17    0.87    1.00
  YS02163601YS02164001 CONDUIT   1430.38     0  01:33      1.82    1.27    1.00
  YS02164001YS02001641 CONDUIT   1429.33     0  01:33      1.82    1.95    1.00
  CC-R1                PUMP       683.00     0  00:00              1.00
  CC-R2                PUMP       683.00     0  00:00              1.00
  CC-S1                PUMP       200.00     0  00:00              1.00
  CC-S2                PUMP       200.00     0  00:00              1.00
  JK-R1                PUMP      1000.00     0  00:00              1.00
  JK-R2                PUMP      1000.00     0  00:00              1.00
  JK-S                 PUMP       300.00     0  00:00              1.00
  
  
  ***************************
  Flow Classification Summary
  ***************************
  
  -------------------------------------------------------------------------------------
                      Adjusted    ---------- Fraction of Time in Flow Class ---------- 
                       /Actual         Up    Down  Sub   Sup   Up    Down  Norm  Inlet 
  Conduit               Length    Dry  Dry   Dry   Crit  Crit  Crit  Crit  Ltd   Ctrl  
  -------------------------------------------------------------------------------------
  1                       1.00   0.00  0.00  0.00  0.00  1.00  0.00  0.00  0.39  0.00
  WS02003060WS02003069    1.00   0.00  0.00  0.00  0.97  0.03  0.00  0.00  0.61  0.00
  WS02003066WSF200        1.00   0.13  0.00  0.00  0.00  0.87  0.00  0.00  0.73  0.00
  WS02003067WS02003066    1.00   0.10  0.02  0.00  0.88  0.00  0.00  0.00  0.00  0.00
  WS02003069WS02003072    1.00   0.00  0.00  0.00  0.99  0.01  0.00  0.00  0.67  0.00
  WS02003072WS02003073    1.00   0.00  0.00  0.00  0.00  0.00  0.00  1.00  0.00  0.00
  WS02004401WS02004402    1.00   0.02  0.00  0.00  0.98  0.00  0.00  0.00  0.00  0.00
  WS02004402WS02004403    1.00   0.02  0.00  0.00  0.97  0.00  0.00  0.00  0.00  0.00
  WS02004403WS02004404    1.00   0.00  0.03  0.00  0.97  0.00  0.00  0.00  0.00  0.00
  WS02004404WS02004405    1.00   0.00  0.00  0.00  1.00  0.00  0.00  0.00  0.02  0.00
  WS02004405WS02004406    1.00   0.00  0.00  0.00  1.00  0.00  0.00  0.00  0.00  0.00
  WS02004406WS02004407    1.00   0.00  0.05  0.00  0.95  0.00  0.00  0.00  0.00  0.00
  WS02004407WS02004409    1.00   0.05  0.00  0.00  0.94  0.01  0.00  0.00  0.94  0.00
  WS02004409WS02004410    1.00   0.05  0.00  0.00  0.95  0.00  0.00  0.00  0.03  0.00
  WS02004410WS02004411    1.00   0.05  0.00  0.00  0.95  0.00  0.00  0.00  0.01  0.00
  WS02004411WS02004412    1.00   0.05  0.00  0.00  0.95  0.00  0.00  0.00  0.00  0.00
  WS02004412WS02004413    1.00   0.05  0.00  0.00  0.94  0.00  0.00  0.00  0.01  0.00
  WS02004413WS02003067    1.00   0.06  0.04  0.00  0.00  0.00  0.90  0.00  0.00  0.00
  WS02006109WS02006110    1.00   0.00  0.01  0.00  0.98  0.00  0.01  0.00  0.00  0.00
  WS02006110WS02006113    1.00   0.01  0.01  0.00  0.98  0.00  0.00  0.00  0.00  0.00
  WS02006111WS02006112    1.00   0.02  0.00  0.00  0.98  0.00  0.00  0.00  0.98  0.00
  WS02006112WS02006115    1.00   0.02  0.00  0.00  0.97  0.00  0.00  0.00  0.00  0.00
  WS02006113WS02006111    1.00   0.02  0.00  0.00  0.00  0.98  0.00  0.00  0.21  0.00
  WS02006115WS02006116    1.00   0.02  0.00  0.00  0.97  0.00  0.00  0.01  0.00  0.00
  WS02006116WS02004401    1.00   0.02  0.00  0.00  0.98  0.00  0.00  0.00  0.00  0.00
  WS02006228WS02006109    1.00   0.00  0.00  0.00  1.00  0.00  0.00  0.00  0.00  0.00
  WS02006229WS02006228    1.00   0.00  0.00  0.00  0.99  0.00  0.00  0.01  0.00  0.00
  WS02006230WS02006229    1.00   0.00  0.00  0.00  0.99  0.00  0.00  0.01  0.01  0.00
  WS02006231WS02006230    1.00   0.00  0.00  0.00  0.32  0.00  0.68  0.00  0.00  0.00
  WS02006232WS02006231    1.00   0.00  0.00  0.00  0.98  0.00  0.01  0.00  0.00  0.00
  WS02006234WS02006232    1.00   0.00  0.00  0.00  1.00  0.00  0.00  0.00  0.04  0.00
  WS02006235WS02006234    1.00   0.00  0.00  0.00  0.92  0.00  0.08  0.00  0.00  0.00
  WS02006238WS02006235    1.00   0.00  0.00  0.00  1.00  0.00  0.00  0.00  0.00  0.00
  WS02006239WS02006238    1.00   0.00  0.00  0.00  1.00  0.00  0.00  0.00  0.11  0.00
  WS02006240WS02006239    1.00   0.00  0.00  0.00  0.80  0.00  0.00  0.20  0.04  0.00
  WS02006242WS02006240    1.00   0.00  0.00  0.00  0.98  0.00  0.02  0.00  0.00  0.00
  WS02006243WS02006242    1.00   0.00  0.00  0.00  0.98  0.00  0.00  0.02  0.38  0.00
  WS02006245WS02006243    1.00   0.00  0.00  0.00  0.88  0.00  0.00  0.11  0.02  0.00
  WS02006247WS02006245    1.00   0.00  0.00  0.00  0.98  0.00  0.00  0.02  0.00  0.00
  WS02006248WS02006247    1.00   0.00  0.00  0.00  0.98  0.00  0.00  0.02  0.33  0.00
  WS02006249WS02006248    1.00   0.00  0.00  0.00  0.61  0.00  0.39  0.00  0.00  0.00
  WS02006251WS02006249    1.00   0.00  0.00  0.00  0.99  0.01  0.00  0.00  0.41  0.00
  WS02006252WS02006251    1.00   0.00  0.44  0.00  0.16  0.00  0.40  0.00  0.00  0.00
  WS02006256WS02006235    1.00   0.00  0.00  0.00  1.00  0.00  0.00  0.00  0.00  0.00
  WSF200WS02003060        1.00   0.00  0.13  0.00  0.08  0.79  0.00  0.00  0.44  0.00
  YS02001580YS02001583    1.00   0.19  0.55  0.00  0.26  0.00  0.00  0.00  0.65  0.00
  YS02001583YS02001586    1.00   0.40  0.28  0.00  0.31  0.00  0.00  0.00  0.65  0.00
  YS02001586YS02001590    1.00   0.13  0.00  0.00  0.45  0.04  0.00  0.38  0.31  0.00
  YS02001590YS02001593    1.00   0.13  0.01  0.00  0.19  0.00  0.68  0.00  0.00  0.00
  YS02001593YS02001596    1.00   0.13  0.00  0.00  0.20  0.01  0.00  0.66  0.01  0.00
  YS02001596YS02001600    1.00   0.13  0.00  0.00  0.24  0.01  0.00  0.61  0.03  0.00
  YS02001600YS02001601    1.00   0.13  0.01  0.00  0.87  0.00  0.00  0.00  0.57  0.00
  YS02001601YS02001602    1.00   0.13  0.01  0.00  0.87  0.00  0.00  0.00  0.00  0.00
  YS02001602YS02001605    1.00   0.13  0.00  0.00  0.87  0.00  0.00  0.00  0.00  0.00
  YS02001605YS02001607    1.00   0.13  0.00  0.00  0.87  0.00  0.00  0.00  0.00  0.00
  YS02001607YS02001610    1.00   0.13  0.00  0.00  0.86  0.00  0.00  0.00  0.01  0.00
  YS02001610YS02001613    1.00   0.13  0.00  0.00  0.87  0.00  0.00  0.00  0.00  0.00
  YS02001613YS02001616    1.00   0.13  0.00  0.00  0.87  0.00  0.00  0.00  0.00  0.00
  YS02001616YS02001619    1.00   0.13  0.00  0.00  0.87  0.00  0.00  0.00  0.00  0.00
  YS02001619YS02001622    1.00   0.13  0.00  0.00  0.87  0.00  0.00  0.00  0.28  0.00
  YS02001622YS02001625    1.00   0.13  0.00  0.00  0.87  0.00  0.00  0.00  0.02  0.00
  YS02001625YS02001629    1.00   0.13  0.03  0.00  0.22  0.00  0.62  0.00  0.00  0.00
  YS02001629YS02163301    1.00   0.14  0.01  0.00  0.85  0.00  0.00  0.00  0.00  0.00
  YS02001633YS02163601    1.00   0.00  0.01  0.00  0.99  0.00  0.00  0.00  0.14  0.00
  YS02001641YS02001644    1.00   0.00  0.01  0.00  0.99  0.00  0.00  0.00  0.00  0.00
  YS02001644YS02001647    1.00   0.00  0.15  0.00  0.85  0.00  0.00  0.00  0.00  0.00
  YS02001647YS02001649    1.00   0.00  0.15  0.00  0.63  0.22  0.00  0.00  0.54  0.00
  YS02001649YS02001757    1.00   0.00  0.00  0.00  0.92  0.08  0.00  0.00  0.39  0.00
  YS02001652YS02001649    1.00   0.00  0.00  0.00  0.98  0.02  0.00  0.00  0.69  0.00
  YS02001655YS02001652    1.00   0.00  0.00  0.00  0.25  0.00  0.00  0.74  0.03  0.00
  YS02001658YS02001655    1.00   0.00  0.14  0.00  0.74  0.12  0.00  0.00  0.61  0.00
  YS02001661YS02001658    1.00   0.14  0.00  0.00  0.58  0.28  0.00  0.00  0.65  0.00
  YS02001664YS02001661    1.00   0.13  0.00  0.00  0.80  0.07  0.00  0.00  0.82  0.00
  YS02001745YS02001748    1.00   0.00  0.00  0.00  0.19  0.00  0.00  0.81  0.05  0.00
  YS02001748YS02001751    1.00   0.00  0.00  0.00  0.90  0.10  0.00  0.00  0.73  0.00
  YS02001751YS02001754    1.00   0.00  0.00  0.00  0.25  0.00  0.00  0.75  0.03  0.00
  YS02001754YS02001757    1.00   0.00  0.00  0.00  1.00  0.00  0.00  0.00  0.73  0.00
  YS02001757CaochengTiaoxuchi    1.00   0.00  0.00  0.00  0.99  0.01  0.00  0.00  0.56  0.00
  YS02001759YS02001757    1.00   0.00  0.00  0.00  0.98  0.02  0.00  0.00  0.49  0.00
  YS02001762YS02001759    1.00   0.00  0.00  0.00  1.00  0.00  0.00  0.00  0.04  0.00
  YS02001765YS02001762    1.00   0.00  0.00  0.00  1.00  0.00  0.00  0.00  0.62  0.00
  YS02001767YS02001765    1.00   0.00  0.00  0.00  1.00  0.00  0.00  0.00  0.01  0.00
  YS02001770YS02001767    1.00   0.00  0.00  0.00  1.00  0.00  0.00  0.00  0.00  0.00
  YS02001774YS02001770    1.00   0.00  0.13  0.00  0.71  0.00  0.16  0.00  0.02  0.00
  YS02001779YS02001774    1.00   0.00  0.00  0.00  1.00  0.00  0.00  0.00  0.72  0.00
  YS02001783YS02001784    1.00   0.00  0.16  0.00  0.84  0.00  0.00  0.00  0.54  0.00
  YS02001784YS02001785    1.00   0.00  0.00  0.00  1.00  0.00  0.00  0.00  0.15  0.00
  YS02001786YS02001788    1.00   0.00  0.00  0.00  0.80  0.20  0.00  0.00  0.00  0.00
  YS02001788YS02001790    1.00   0.00  0.00  0.00  0.20  0.80  0.00  0.00  0.77  0.00
  YS02001790YS02001791    1.00   0.00  0.00  0.00  0.01  0.99  0.00  0.00  0.16  0.00
  YS02001791YS02001793    1.00   0.00  0.00  0.00  0.00  1.00  0.00  0.00  0.02  0.00
  YS02001793JiankangQianchi    1.00   0.00  0.00  0.00  0.99  0.01  0.00  0.00  0.91  0.00
  YS02001882YS02001884    1.00   0.14  0.00  0.00  0.85  0.00  0.00  0.00  0.00  0.00
  YS02001884YS02001887    1.00   0.06  0.05  0.00  0.89  0.00  0.00  0.00  0.00  0.00
  YS02001887YS02001890    1.00   0.00  0.00  0.00  0.97  0.00  0.03  0.00  0.00  0.00
  YS02001890YS02001895    1.00   0.00  0.15  0.00  0.85  0.00  0.00  0.00  0.00  0.00
  YS02001895YS02001898    1.00   0.15  0.00  0.00  0.84  0.00  0.01  0.00  0.00  0.00
  YS02001898YS02001901    1.00   0.15  0.00  0.00  0.85  0.00  0.00  0.00  0.00  0.00
  YS02001901YS02001904    1.00   0.15  0.00  0.00  0.85  0.00  0.00  0.00  0.00  0.00
  YS02001904YS02001907    1.00   0.00  0.15  0.00  0.85  0.00  0.00  0.00  0.00  0.00
  YS02001907YS02006553    1.00   0.00  0.02  0.00  0.98  0.00  0.00  0.00  0.00  0.00
  YS02001910YS02001907    1.00   0.00  0.00  0.00  0.97  0.00  0.00  0.03  0.11  0.00
  YS02001915YS02001910    1.00   0.00  0.00  0.00  0.97  0.03  0.00  0.00  0.12  0.00
  YS02001918YS02001915    1.00   0.00  0.01  0.00  0.98  0.02  0.00  0.00  0.69  0.00
  YS02001920YS02001918    1.00   0.00  0.01  0.00  0.99  0.00  0.00  0.00  0.00  0.00
  YS02001923YS02001920    1.00   0.00  0.00  0.00  1.00  0.00  0.00  0.00  0.88  0.00
  YS02001926YS02001923    1.00   0.00  0.07  0.00  0.09  0.00  0.83  0.00  0.00  0.00
  YS02001929YS02001926    1.00   0.00  0.13  0.00  0.87  0.00  0.00  0.00  0.79  0.00
  YS02006553YS02006556    1.00   0.01  0.00  0.00  0.99  0.00  0.00  0.00  0.03  0.00
  YS02006556YS02006558    1.00   0.00  0.00  0.00  1.00  0.00  0.00  0.00  0.00  0.00
  YS02006558YS02006561    1.00   0.16  0.00  0.00  0.09  0.75  0.00  0.00  0.16  0.00
  YS02006561YS02001783    1.00   0.16  0.00  0.00  0.13  0.71  0.00  0.00  0.64  0.00
  YS02163301YS02001633    1.00   0.00  0.14  0.00  0.86  0.00  0.00  0.00  0.00  0.00
  YS02163601YS02164001    1.00   0.00  0.08  0.00  0.92  0.00  0.00  0.00  0.00  0.00
  YS02164001YS02001641    1.00   0.01  0.07  0.00  0.92  0.00  0.00  0.00  0.05  0.00
  
  
  *************************
  Conduit Surcharge Summary
  *************************
  
  ----------------------------------------------------------------------------
                                                           Hours        Hours 
                         --------- Hours Full --------   Above Full   Capacity
  Conduit                Both Ends  Upstream  Dnstream   Normal Flow   Limited
  ----------------------------------------------------------------------------
  WS02003072WS02003073        0.01      0.01      0.01      1.88         0.01
  WS02004403WS02004404        0.01      0.01      0.01      0.01         0.01
  WS02004404WS02004405        0.01      0.01      0.01      4.62         0.01
  WS02004405WS02004406        0.01      0.01      0.01      0.78         0.01
  WS02006109WS02006110        0.87      0.87      2.48      1.08         0.01
  WS02006110WS02006113        0.01      0.01      2.47      0.01         0.01
  WS02006111WS02006112        0.01      0.01      2.63      0.01         0.01
  WS02006112WS02006115        0.01      0.01      1.21      0.01         0.01
  WS02006228WS02006109        2.46      2.48      2.46      2.84         2.46
  WS02006229WS02006228        2.46      2.46      2.46      2.60         2.44
  WS02006230WS02006229        2.50      2.54      2.50      5.49         2.50
  WS02006231WS02006230        0.87      0.87      1.22      4.93         0.01
  WS02006232WS02006231        1.12      1.12      2.48      1.23         0.01
  WS02006234WS02006232        2.38      2.38      2.48      1.20         1.19
  WS02006235WS02006234        1.66      1.67      2.39      4.54         0.04
  WS02006238WS02006235        2.41      2.41      2.48      0.01         0.01
  WS02006239WS02006238        2.46      2.48      2.46      2.58         2.20
  WS02006240WS02006239        2.42      2.46      2.43      2.60         2.07
  WS02006242WS02006240        2.46      2.46      2.48      2.78         0.01
  WS02006243WS02006242        2.45      2.45      2.47      0.01         0.08
  WS02006245WS02006243        2.45      2.45      2.45      1.72         1.56
  WS02006247WS02006245        2.45      2.45      2.45      4.20         2.42
  WS02006248WS02006247        2.44      2.44      2.45      0.01         0.09
  WS02006249WS02006248        2.44      2.44      2.44      4.15         0.01
  WS02006251WS02006249        2.44      2.44      2.44      2.75         2.32
  WS02006252WS02006251        2.83      2.83      2.83      2.83         0.01
  WS02006256WS02006235        4.63      4.70      7.01      1.51         0.01
  YS02001580YS02001583        1.00      1.00      1.08      0.01         0.01
  YS02001583YS02001586        1.01      1.01      1.25      0.01         0.01
  YS02001586YS02001590        1.26      1.26      1.35      0.01         0.01
  YS02001590YS02001593        1.36      1.36      1.38      1.42         0.01
  YS02001593YS02001596        1.37      1.37      1.51      0.01         0.01
  YS02001596YS02001600        1.57      1.57      1.64      0.01         0.01
  YS02001600YS02001601        1.67      1.67      1.84      0.01         0.01
  YS02001601YS02001602        1.78      1.78      1.87      1.62         0.01
  YS02001602YS02001605        1.75      1.75      1.78      2.49         0.01
  YS02001605YS02001607        1.72      1.75      1.73      1.80         1.71
  YS02001607YS02001610        1.39      1.39      1.43      0.01         0.01
  YS02001610YS02001613        1.39      1.39      1.43      0.01         0.01
  YS02001613YS02001616        1.33      1.33      1.39      0.01         0.01
  YS02001616YS02001619        1.32      1.32      1.33      0.16         0.13
  YS02001619YS02001622        1.32      1.32      1.32      1.25         1.13
  YS02001622YS02001625        1.32      1.32      1.54      0.01         0.01
  YS02001625YS02001629        1.25      1.25      1.54      0.01         0.01
  YS02001629YS02163301        1.54      1.54      1.55      0.03         0.08
  YS02001633YS02163601        1.57      1.57      1.59      0.08         0.17
  YS02001641YS02001644        1.52      1.54      1.52      1.89         1.50
  YS02001644YS02001647        1.30      1.30      1.52      0.04         0.01
  YS02001647YS02001649        1.30      1.30      1.47      0.01         0.01
  YS02001649YS02001757        1.47      1.47      1.53      0.05         0.02
  YS02001652YS02001649        1.26      1.26      1.47      0.01         0.01
  YS02001655YS02001652        0.97      0.97      1.22      0.01         0.01
  YS02001658YS02001655        0.49      0.49      0.97      0.01         0.01
  YS02001661YS02001658        0.18      0.18      0.49      0.01         0.01
  YS02001664YS02001661        0.01      0.01      0.23      0.01         0.01
  YS02001745YS02001748        0.01      0.01      0.38      0.01         0.01
  YS02001748YS02001751        0.45      0.45      0.78      0.01         0.01
  YS02001751YS02001754        0.78      0.78      1.14      0.01         0.01
  YS02001754YS02001757        1.19      1.19      1.53      0.01         0.01
  YS02001757CaochengTiaoxuchi        1.50      1.53      2.47      0.50         0.45
  YS02001759YS02001757        1.46      1.46      1.53      0.11         0.10
  YS02001762YS02001759        1.42      1.42      1.46      0.01         0.02
  YS02001765YS02001762        1.37      1.37      1.42      0.01         0.01
  YS02001767YS02001765        1.33      1.33      1.37      0.01         0.02
  YS02001770YS02001767        1.33      1.33      1.33      0.83         0.79
  YS02001774YS02001770        1.29      1.29      1.40      0.01         0.01
  YS02001779YS02001774        1.10      1.10      1.40      0.01         0.01
  YS02001783YS02001784        0.80      0.83      0.80      1.01         0.80
  YS02001784YS02001785        0.67      0.80      0.67      1.41         0.67
  YS02001786YS02001788        0.01      0.67      0.01      1.18         0.01
  YS02001790YS02001791        0.01      0.01      0.01      0.78         0.01
  YS02001793JiankangQianchi        0.01      0.01      7.60      0.01         0.01
  YS02001882YS02001884        0.75      0.75      0.77      0.01         0.01
  YS02001884YS02001887        0.80      0.80      0.81      0.01         0.01
  YS02001887YS02001890        0.83      0.83      0.84      0.25         0.01
  YS02001890YS02001895        0.74      0.74      0.87      0.01         0.01
  YS02001895YS02001898        0.73      0.73      0.74      0.01         0.01
  YS02001898YS02001901        0.74      0.74      0.80      0.01         0.01
  YS02001901YS02001904        0.78      0.78      0.80      0.01         0.01
  YS02001904YS02001907        0.78      0.78      1.14      0.01         0.01
  YS02001907YS02006553        1.43      1.43      1.54      0.01         0.01
  YS02001910YS02001907        0.86      0.86      1.09      0.14         0.15
  YS02001915YS02001910        0.75      0.75      0.86      0.01         0.01
  YS02001918YS02001915        0.65      0.65      0.75      0.01         0.01
  YS02001920YS02001918        0.65      0.65      0.66      0.01         0.01
  YS02001923YS02001920        0.59      0.59      0.66      0.01         0.01
  YS02001926YS02001923        0.27      0.27      0.30      0.04         0.01
  YS02001929YS02001926        0.16      0.16      0.30      0.01         0.01
  YS02006553YS02006556        0.97      0.97      1.13      0.01         0.01
  YS02006556YS02006558        1.03      1.03      1.18      0.01         0.01
  YS02006558YS02006561        0.69      0.96      0.69      1.33         0.69
  YS02006561YS02001783        0.61      0.61      0.83      0.01         0.01
  YS02163301YS02001633        1.55      1.55      1.58      0.01         0.01
  YS02163601YS02164001        1.54      1.54      1.59      0.04         0.01
  YS02164001YS02001641        1.54      1.54      1.54      0.91         0.92
  
  
  ***************
  Pumping Summary
  ***************
  
  ---------------------------------------------------------------------------------------------------------
                                                  Min       Avg       Max     Total     Power    % Time Off
                        Percent   Number of      Flow      Flow      Flow    Volume     Usage    Pump Curve
  Pump                 Utilized   Start-Ups       LPS       LPS       LPS  10^6 ltr     Kw-hr    Low   High
  ---------------------------------------------------------------------------------------------------------
  CC-R1                   24.33           2      0.00    683.00    683.00     4.786     93.06    0.0    4.3
  CC-R2                   21.35           2      0.00    683.00    683.00     4.200     82.26    0.0    4.9
  CC-S1                   49.43           6      0.00    200.00    200.00     2.847     15.56    0.0    0.0
  CC-S2                   39.55           6      0.00    200.00    200.00     2.278     12.25    0.0    0.0
  JK-R1                   12.08          14      0.00   1000.00   1000.00     3.480     40.62    0.0    0.0
  JK-R2                    1.21           2      0.00   1000.00   1000.00     0.347      4.13    0.0    0.0
  JK-S                    18.73          27      0.00    300.00    300.00     1.619     21.33    0.0    0.0
  

  Analysis begun on:  Mon Jan 13 10:10:42 2025
  Analysis ended on:  Mon Jan 13 10:10:44 2025
  Total elapsed time: 00:00:02