
  EPA STORM WATER MANAGEMENT MODEL - VERSION 5.2 (Build 5.2.4)
  PYSWMM TOOLKIT API - VERSION v1.0 (2023-11-27)
  ------------------------------------------------------------

  WARNING 04: minimum elevation drop used for Conduit WS02004404WS02004405
  WARNING 03: negative offset ignored for Link YS02001904YS02001907
  
  ****************
  Analysis Options
  ****************
  Flow Units ............... LPS
  Process Models:
    Rainfall/Runoff ........ YES
    RDII ................... NO
    Snowmelt ............... NO
    Groundwater ............ NO
    Flow Routing ........... YES
    Ponding Allowed ........ NO
    Water Quality .......... NO
  Infiltration Method ...... HORTON
  Flow Routing Method ...... DYNWAVE
  Surcharge Method ......... EXTRAN
  Starting Date ............ 08/28/2015 08:00:00
  Ending Date .............. 08/28/2015 16:00:00
  Antecedent Dry Days ...... 8.0
  Report Time Step ......... 00:01:00
  Wet Time Step ............ 00:01:00
  Dry Time Step ............ 00:01:00
  Routing Time Step ........ 30.00 sec
  Variable Time Step ....... YES
  Maximum Trials ........... 8
  Number of Threads ........ 4
  Head Tolerance ........... 0.001500 m
  
  
  **************************        Volume         Depth
  Runoff Quantity Continuity     hectare-m            mm
  **************************     ---------       -------
  Total Precipitation ......         3.551       107.049
  Evaporation Loss .........         0.000         0.000
  Infiltration Loss ........         0.104         3.133
  Surface Runoff ...........         3.415       102.949
  Final Storage ............         0.033         0.996
  Continuity Error (%) .....        -0.027
  
  
  **************************        Volume        Volume
  Flow Routing Continuity        hectare-m      10^6 ltr
  **************************     ---------     ---------
  Dry Weather Inflow .......         0.025         0.251
  Wet Weather Inflow .......         3.415        34.148
  Groundwater Inflow .......         0.000         0.000
  RDII Inflow ..............         0.000         0.000
  External Inflow ..........         0.083         0.834
  External Outflow .........         1.869        18.686
  Flooding Loss ............         1.655        16.550
  Evaporation Loss .........         0.000         0.000
  Exfiltration Loss ........         0.000         0.000
  Initial Stored Volume ....         0.243         2.431
  Final Stored Volume ......         0.247         2.466
  Continuity Error (%) .....        -0.100
  
  
  *************************
  Highest Continuity Errors
  *************************
  Node YS02001884 (4.96%)
  Node YS02001583 (-4.40%)
  
  
  ***************************
  Time-Step Critical Elements
  ***************************
  Link WS02006252WS02006251 (54.07%)
  Link WS02006238WS02006235 (11.60%)
  Link YS02001791YS02001793 (8.02%)
  Link WS02003066WSF200 (6.55%)
  Link WS02006235WS02006234 (5.37%)
  
  
  ********************************
  Highest Flow Instability Indexes
  ********************************
  Link WS02006113WS02006111 (39)
  Link WS02006111WS02006112 (19)
  Link WS02006252WS02006251 (16)
  Link WS02006238WS02006235 (14)
  Link WS02006256WS02006235 (13)
  
  
  *********************************
  Most Frequent Nonconverging Nodes
  *********************************
  Node CC-1 (13.39%)
  Node CC-2 (13.39%)
  Node JK-1 (13.39%)
  Node JK-2 (13.39%)
  Node WSC (13.39%)
  
  
  *************************
  Routing Time Step Summary
  *************************
  Minimum Time Step           :     0.00 sec
  Average Time Step           :     1.62 sec
  Maximum Time Step           :     7.04 sec
  % of Time in Steady State   :     0.00
  Average Iterations per Step :     3.17
  % of Steps Not Converging   :    13.39
  Time Step Frequencies       :
     30.000 - 13.228 sec      :     0.00 %
     13.228 -  5.833 sec      :     2.58 %
      5.833 -  2.572 sec      :    19.59 %
      2.572 -  1.134 sec      :    18.39 %
      1.134 -  0.500 sec      :    59.44 %
  
  
  ***************************
  Subcatchment Runoff Summary
  ***************************
  
  ------------------------------------------------------------------------------------------------------------------------------
                            Total      Total      Total      Total     Imperv       Perv      Total       Total     Peak  Runoff
                           Precip      Runon       Evap      Infil     Runoff     Runoff     Runoff      Runoff   Runoff   Coeff
  Subcatchment                 mm         mm         mm         mm         mm         mm         mm    10^6 ltr      LPS
  ------------------------------------------------------------------------------------------------------------------------------
  sub60                    107.05       0.00       0.00       1.88      93.02      10.97     103.98        1.37   974.82   0.971
  sub61                    107.05       0.00       0.00       2.73      87.74      15.48     103.21        1.89  1354.25   0.964
  sub62                    107.05       0.00       0.00       1.25      97.21       7.31     104.53        2.86  1904.89   0.976
  sub63                    107.05       0.00       0.00       5.02      75.05      26.03     101.08        2.29  1533.11   0.944
  sub64                    107.05       0.00       0.00       2.54      89.80      13.52     103.32        2.48  1558.36   0.965
  sub65                    107.05       0.00       0.00       2.20      91.89      11.72     103.61        2.85  1746.80   0.968
  sub66                    107.05       0.00       0.00       6.21      74.94      24.84      99.77        4.65  2323.58   0.932
  sub67                    107.05       0.00       0.00       1.21      97.26       7.36     104.62        1.95  1451.70   0.977
  sub68                    107.05       0.00       0.00       2.26      90.89      12.73     103.62        2.85  1958.55   0.968
  sub69                    107.05       0.00       0.00       2.03      90.89      14.03     104.92        3.88  2322.10   0.980
  sub70                    107.05       0.00       0.00       6.77      70.49      29.63     100.13        2.89  1300.79   0.935
  sub71                    107.05       0.00       0.00       1.29      97.17       7.28     104.45        2.73  1684.40   0.976
  sub72                    107.05       0.00       0.00       1.14      98.16       6.35     104.51        1.44   818.30   0.976
  
  
  ******************
  Node Depth Summary
  ******************
  
  ---------------------------------------------------------------------------------
                                 Average  Maximum  Maximum  Time of Max    Reported
                                   Depth    Depth      HGL   Occurrence   Max Depth
  Node                 Type       Meters   Meters   Meters  days hr:min      Meters
  ---------------------------------------------------------------------------------
  WS02003060           JUNCTION     0.23     0.38     5.32     0  02:16        0.38
  WS02003066           JUNCTION     0.19     0.30     5.85     0  02:17        0.30
  WS02003067           JUNCTION     0.49     0.70     6.02     0  02:16        0.70
  WS02003069           JUNCTION     0.25     0.43     5.01     0  02:16        0.43
  WS02003072           JUNCTION     0.32     0.50     4.87     0  02:17        0.50
  WS02003073           JUNCTION     0.18     0.30     4.36     0  02:18        0.30
  WS02004401           JUNCTION     0.57     0.85     6.85     0  02:12        0.85
  WS02004402           JUNCTION     0.60     0.88     6.84     0  02:13        0.88
  WS02004403           JUNCTION     0.62     0.89     6.82     0  02:13        0.89
  WS02004404           JUNCTION     0.70     0.96     6.81     0  02:13        0.96
  WS02004405           JUNCTION     0.70     0.96     6.81     0  02:13        0.96
  WS02004406           JUNCTION     0.71     0.96     6.79     0  02:13        0.96
  WS02004407           JUNCTION     0.17     0.30     6.61     0  02:13        0.30
  WS02004409           JUNCTION     0.37     0.67     6.44     0  02:14        0.67
  WS02004410           JUNCTION     0.40     0.68     6.40     0  02:14        0.68
  WS02004411           JUNCTION     0.42     0.69     6.37     0  02:16        0.69
  WS02004412           JUNCTION     0.45     0.70     6.34     0  02:16        0.70
  WS02004413           JUNCTION     0.61     0.86     6.33     0  02:16        0.86
  WS02006109           JUNCTION     0.62     1.41     8.03     0  01:58        1.28
  WS02006110           JUNCTION     0.62     1.48     8.07     0  01:58        1.10
  WS02006111           JUNCTION     0.16     0.29     7.00     0  02:49        0.29
  WS02006112           JUNCTION     0.72     1.12     7.00     0  02:49        1.07
  WS02006113           JUNCTION     0.25     0.46     7.36     0  02:49        0.46
  WS02006115           JUNCTION     0.45     0.75     6.89     0  02:12        0.75
  WS02006116           JUNCTION     0.53     0.83     6.87     0  02:12        0.83
  WS02006228           JUNCTION     0.61     1.70     8.35     0  01:58        1.31
  WS02006229           JUNCTION     0.58     1.79     8.49     0  01:58        1.24
  WS02006230           JUNCTION     0.57     2.19     8.94     0  01:58        1.21
  WS02006231           JUNCTION     0.39     1.66     8.79     0  01:58        1.16
  WS02006232           JUNCTION     0.53     1.76     8.80     0  01:58        1.57
  WS02006234           JUNCTION     0.45     1.81     8.96     0  02:49        1.81
  WS02006235           JUNCTION     0.49     2.00     9.16     0  02:38        2.00
  WS02006238           JUNCTION     0.52     2.15     9.29     0  02:38        2.15
  WS02006239           JUNCTION     0.49     2.03     9.24     0  02:38        2.03
  WS02006240           JUNCTION     0.46     2.10     9.39     0  02:38        2.10
  WS02006242           JUNCTION     0.53     1.55     8.82     0  02:38        1.55
  WS02006243           JUNCTION     0.44     1.48     8.90     0  02:38        1.48
  WS02006245           JUNCTION     0.45     1.56     9.04     0  02:38        1.56
  WS02006247           JUNCTION     0.48     1.47     8.97     0  02:38        1.47
  WS02006248           JUNCTION     0.44     1.10     8.69     0  01:50        1.10
  WS02006249           JUNCTION     0.48     1.09     8.69     0  01:46        1.09
  WS02006251           JUNCTION     0.48     1.46     9.13     0  01:46        1.22
  WS02006252           JUNCTION     0.36     1.50     9.74     0  00:00        0.88
  WS02006256           JUNCTION     0.93     2.35     9.28     0  00:00        2.35
  WSF200               JUNCTION     0.16     0.29     5.52     0  02:17        0.29
  YS02001580           JUNCTION     0.11     1.05     9.59     0  01:39        0.77
  YS02001583           JUNCTION     0.14     1.14     9.64     0  01:39        0.82
  YS02001586           JUNCTION     0.21     1.13     9.30     0  01:39        1.13
  YS02001590           JUNCTION     0.30     1.40     9.26     0  01:39        1.38
  YS02001593           JUNCTION     0.24     1.33     9.19     0  01:39        1.29
  YS02001596           JUNCTION     0.32     1.68     9.10     0  01:39        1.66
  YS02001600           JUNCTION     0.38     1.87     9.00     0  01:39        1.86
  YS02001601           JUNCTION     0.56     2.06     8.90     0  01:38        2.06
  YS02001602           JUNCTION     0.47     1.87     8.77     0  01:38        1.87
  YS02001605           JUNCTION     0.44     1.78     8.68     0  01:38        1.78
  YS02001607           JUNCTION     0.44     1.67     8.52     0  02:42        1.67
  YS02001610           JUNCTION     0.49     1.68     8.48     0  01:38        1.68
  YS02001613           JUNCTION     0.44     1.70     8.54     0  01:39        1.69
  YS02001616           JUNCTION     0.37     1.61     8.52     0  01:38        1.61
  YS02001619           JUNCTION     0.35     1.61     8.54     0  01:38        1.61
  YS02001622           JUNCTION     0.34     1.62     8.52     0  01:38        1.61
  YS02001625           JUNCTION     0.61     1.78     8.38     0  01:39        1.78
  YS02001629           JUNCTION     0.46     1.85     8.40     0  01:38        1.85
  YS02001633           JUNCTION     0.54     2.08     8.53     0  01:49        2.08
  YS02001641           JUNCTION     0.53     1.96     8.40     0  01:49        1.96
  YS02001644           JUNCTION     0.53     1.92     8.35     0  01:43        1.92
  YS02001647           JUNCTION     0.32     1.79     8.40     0  01:47        1.79
  YS02001649           JUNCTION     0.37     2.05     8.44     0  01:47        2.05
  YS02001652           JUNCTION     0.28     1.98     8.58     0  01:49        1.98
  YS02001655           JUNCTION     0.22     1.87     8.72     0  01:49        1.87
  YS02001658           JUNCTION     0.17     1.73     8.87     0  01:43        1.71
  YS02001661           JUNCTION     0.18     1.58     8.98     0  01:49        1.57
  YS02001664           JUNCTION     0.06     1.19     9.11     0  01:49        1.17
  YS02001745           JUNCTION     0.09     1.13     8.65     0  01:49        1.13
  YS02001748           JUNCTION     0.16     1.80     8.88     0  01:44        1.50
  YS02001751           JUNCTION     0.20     1.75     8.63     0  01:44        1.65
  YS02001754           JUNCTION     0.26     1.88     8.48     0  01:49        1.88
  YS02001757           JUNCTION     0.40     2.16     8.43     0  01:49        2.16
  YS02001759           JUNCTION     0.35     2.20     8.57     0  01:49        2.20
  YS02001762           JUNCTION     0.34     2.14     8.54     0  01:49        2.14
  YS02001765           JUNCTION     0.32     2.06     8.51     0  01:49        2.06
  YS02001767           JUNCTION     0.32     1.99     8.48     0  01:49        1.99
  YS02001770           JUNCTION     0.32     1.95     8.44     0  01:44        1.95
  YS02001774           JUNCTION     0.39     2.02     8.44     0  01:53        2.02
  YS02001779           JUNCTION     0.24     1.68     8.37     0  01:42        1.68
  YS02001783           JUNCTION     0.23     1.29     7.43     0  01:49        1.28
  YS02001784           JUNCTION     0.24     1.17     7.23     0  01:49        1.15
  YS02001786           JUNCTION     0.20     0.90     6.93     0  01:49        0.90
  YS02001788           JUNCTION     0.14     0.63     6.61     0  01:49        0.63
  YS02001790           JUNCTION     0.17     0.74     6.38     0  01:51        0.73
  YS02001791           JUNCTION     0.11     0.44     5.91     0  01:52        0.44
  YS02001793           JUNCTION     0.06     0.30     5.13     0  01:43        0.28
  YS02001882           JUNCTION     0.30     1.83     8.55     0  01:40        1.77
  YS02001884           JUNCTION     0.40     1.93     8.55     0  01:40        1.86
  YS02001887           JUNCTION     0.48     1.95     8.49     0  01:49        1.95
  YS02001890           JUNCTION     0.50     1.81     8.32     0  01:40        1.81
  YS02001895           JUNCTION     0.27     1.57     8.31     0  01:42        1.56
  YS02001898           JUNCTION     0.28     1.56     8.30     0  02:16        1.56
  YS02001901           JUNCTION     0.40     1.68     8.29     0  01:42        1.67
  YS02001904           JUNCTION     0.37     1.64     8.27     0  01:43        1.64
  YS02001907           JUNCTION     0.70     1.96     8.25     0  01:42        1.96
  YS02001910           JUNCTION     0.50     2.02     8.52     0  01:53        2.01
  YS02001915           JUNCTION     0.31     2.00     8.72     0  01:47        2.00
  YS02001918           JUNCTION     0.18     1.81     8.88     0  01:42        1.81
  YS02001920           JUNCTION     0.26     2.14     9.15     0  01:42        2.02
  YS02001923           JUNCTION     0.14     2.03     9.29     0  01:42        1.92
  YS02001926           JUNCTION     0.17     1.90     9.35     0  01:42        1.90
  YS02001929           JUNCTION     0.10     1.78     9.47     0  01:42        1.69
  YS02006553           JUNCTION     0.71     2.02     8.30     0  01:49        2.02
  YS02006556           JUNCTION     0.68     2.06     8.37     0  01:49        2.06
  YS02006558           JUNCTION     0.72     2.14     8.40     0  01:49        2.14
  YS02006561           JUNCTION     0.15     0.97     7.63     0  01:49        0.96
  YS02163301           JUNCTION     0.48     1.94     8.46     0  01:49        1.94
  YS02163601           JUNCTION     0.58     2.07     8.46     0  01:49        2.07
  YS02164001           JUNCTION     0.51     1.97     8.42     0  01:47        1.97
  CC-1                 OUTFALL      0.00     0.00     0.00     0  00:00        0.00
  CC-2                 OUTFALL      0.00     0.00     0.00     0  00:00        0.00
  JK-1                 OUTFALL      0.00     0.00     0.00     0  00:00        0.00
  JK-2                 OUTFALL      0.00     0.00     0.00     0  00:00        0.00
  WSC                  OUTFALL      0.18     0.30     0.97     0  02:19        0.30
  CC-storage           STORAGE      0.98     1.94     7.44     0  02:29        1.94
  JK-storage           STORAGE      3.29     4.23     5.03     0  02:00        4.21
  
  
  *******************
  Node Inflow Summary
  *******************
  
  -------------------------------------------------------------------------------------------------
                                  Maximum  Maximum                  Lateral       Total        Flow
                                  Lateral    Total  Time of Max      Inflow      Inflow     Balance
                                   Inflow   Inflow   Occurrence      Volume      Volume       Error
  Node                 Type           LPS      LPS  days hr:min    10^6 ltr    10^6 ltr     Percent
  -------------------------------------------------------------------------------------------------
  WS02003060           JUNCTION     16.53   553.01     0  02:17       0.476        6.26       0.088
  WS02003066           JUNCTION      0.00   536.33     0  02:15           0        5.79       0.044
  WS02003067           JUNCTION      0.00   536.32     0  02:16           0         5.8       0.104
  WS02003069           JUNCTION      0.32   553.20     0  02:16     0.00922        6.27       0.136
  WS02003072           JUNCTION      0.00   553.07     0  02:17           0        6.26       0.195
  WS02003073           JUNCTION      1.82   554.86     0  02:18      0.0524         6.3       0.156
  WS02004401           JUNCTION      0.00   546.76     0  02:50           0        5.95       0.237
  WS02004402           JUNCTION      0.00   538.80     0  02:50           0        5.93       0.234
  WS02004403           JUNCTION      0.00   537.79     0  02:13           0        5.92       0.221
  WS02004404           JUNCTION      0.16   537.71     0  02:13     0.00467        5.91       0.179
  WS02004405           JUNCTION      0.04   537.67     0  02:13      0.0011         5.9       0.264
  WS02004406           JUNCTION      0.00   537.83     0  02:13           0        5.89       0.436
  WS02004407           JUNCTION      0.00   537.32     0  02:13           0        5.86       0.061
  WS02004409           JUNCTION      0.00   537.05     0  02:13           0        5.86       0.129
  WS02004410           JUNCTION      0.00   536.77     0  02:14           0        5.85       0.161
  WS02004411           JUNCTION      0.00   536.60     0  02:14           0        5.84       0.178
  WS02004412           JUNCTION      0.00   536.49     0  02:14           0        5.83       0.210
  WS02004413           JUNCTION      0.00   536.53     0  02:16           0        5.82       0.339
  WS02006109           JUNCTION      1.23   578.94     0  02:49      0.0354        6.02       0.207
  WS02006110           JUNCTION      0.00   583.64     0  02:49           0        6.01       0.172
  WS02006111           JUNCTION      0.00   581.24     0  02:49           0        5.99       0.028
  WS02006112           JUNCTION      0.00   550.51     0  02:49           0        5.99       0.361
  WS02006113           JUNCTION      0.00   603.03     0  02:49           0           6       0.067
  WS02006115           JUNCTION      0.00   578.21     0  02:49           0        5.97       0.182
  WS02006116           JUNCTION      0.00   554.86     0  02:50           0        5.96       0.165
  WS02006228           JUNCTION      0.00   576.84     0  02:49           0        5.99       0.091
  WS02006229           JUNCTION      0.00   580.54     0  02:49           0           6       0.155
  WS02006230           JUNCTION     10.28   609.03     0  02:38       0.296           6       0.085
  WS02006231           JUNCTION      0.00   595.22     0  02:38           0         5.7      -0.046
  WS02006232           JUNCTION      0.00   593.37     0  02:38           0        5.72       0.288
  WS02006234           JUNCTION      0.00   578.64     0  02:37           0        5.71      -0.191
  WS02006235           JUNCTION      0.00   565.74     0  02:51           0        5.77       0.237
  WS02006238           JUNCTION      0.00   430.75     0  02:50           0        4.63      -0.194
  WS02006239           JUNCTION      0.00   428.52     0  02:50           0         4.6      -0.230
  WS02006240           JUNCTION      0.00   422.67     0  02:50           0        4.58      -0.032
  WS02006242           JUNCTION      0.00   422.21     0  02:50           0        4.56       0.089
  WS02006243           JUNCTION      0.00   421.15     0  02:40           0        4.56       0.074
  WS02006245           JUNCTION      0.00   420.90     0  02:40           0        4.57       0.371
  WS02006247           JUNCTION      0.00   420.91     0  02:25           0        4.57       0.044
  WS02006248           JUNCTION      0.00   420.97     0  03:20           0        4.58       0.098
  WS02006249           JUNCTION      0.00   459.02     0  00:00           0        4.88       0.372
  WS02006251           JUNCTION      0.08   409.51     0  01:46     0.00222        4.88      -0.053
  WS02006252           JUNCTION      0.00   400.00     0  00:00           0        4.88      -0.051
  WS02006256           JUNCTION      0.00   300.00     0  00:00           0         1.7      -0.853
  WSF200               JUNCTION      0.00   536.35     0  02:17           0        5.79       0.028
  YS02001580           JUNCTION      0.00   135.97     0  01:39           0     0.00437      -1.221
  YS02001583           JUNCTION      0.00   163.35     0  01:39           0      0.0155      -4.212
  YS02001586           JUNCTION   1300.79  1300.79     0  01:52        2.89         2.9       0.045
  YS02001590           JUNCTION      0.00   318.30     0  02:16           0        1.74      -0.012
  YS02001593           JUNCTION      0.00   318.17     0  02:16           0        1.74      -0.005
  YS02001596           JUNCTION      0.00   317.97     0  01:44           0        1.74      -0.014
  YS02001600           JUNCTION      0.00   318.03     0  02:16           0        1.74       0.007
  YS02001601           JUNCTION   2322.10  2639.63     0  01:51        3.88        5.62       0.012
  YS02001602           JUNCTION      0.00   522.47     0  01:38           0        2.74       0.020
  YS02001605           JUNCTION      0.00   522.52     0  01:38           0        2.54       0.023
  YS02001607           JUNCTION      0.00   522.62     0  01:38           0        2.54       0.073
  YS02001610           JUNCTION      0.00   954.23     0  01:55           0        3.28       0.066
  YS02001613           JUNCTION      0.00   617.39     0  01:55           0        2.48       0.057
  YS02001616           JUNCTION      0.00   617.74     0  01:55           0        2.48       0.011
  YS02001619           JUNCTION   2323.58  2323.58     0  01:52        4.65        6.38      -0.000
  YS02001622           JUNCTION      0.00  1053.96     0  01:54           0        5.33      -0.002
  YS02001625           JUNCTION      0.00  1505.37     0  02:00           0        5.83       0.172
  YS02001629           JUNCTION      0.00   952.36     0  01:51           0        4.09       0.003
  YS02001633           JUNCTION   1747.00  1747.00     0  01:51        2.86        6.16       0.053
  YS02001641           JUNCTION      0.00  1366.21     0  01:41           0        5.38       0.053
  YS02001644           JUNCTION   1558.40  2984.75     0  01:50        2.48        8.05       0.041
  YS02001647           JUNCTION      0.00  1773.94     0  01:41           0        6.23       0.009
  YS02001649           JUNCTION      0.00  1985.68     0  01:41           0        8.34       0.004
  YS02001652           JUNCTION      0.00  1533.74     0  01:50           0         2.3      -0.063
  YS02001655           JUNCTION      0.15  1533.57     0  01:50     0.00443         2.3      -0.038
  YS02001658           JUNCTION      0.00  1533.65     0  01:50           0        2.31      -0.034
  YS02001661           JUNCTION      0.00  1534.15     0  01:50           0         2.3       0.002
  YS02001664           JUNCTION   1533.11  1533.11     0  01:50        2.29        2.29      -0.007
  YS02001745           JUNCTION    974.82   974.82     0  01:50        1.37        1.37       0.136
  YS02001748           JUNCTION      0.04   974.72     0  01:49      0.0013        1.37      -0.207
  YS02001751           JUNCTION      0.01   975.29     0  01:49    0.000317        1.38       0.030
  YS02001754           JUNCTION      0.26   976.28     0  01:49     0.00749        1.39      -0.145
  YS02001757           JUNCTION      0.00  3326.78     0  01:47           0        13.2       0.023
  YS02001759           JUNCTION   1354.29  1424.10     0  01:48         1.9        3.72      -0.010
  YS02001762           JUNCTION      0.00   720.94     0  01:44           0        1.83       0.006
  YS02001765           JUNCTION      0.00   723.30     0  01:44           0        1.83       0.003
  YS02001767           JUNCTION      0.54   724.75     0  01:44      0.0154        1.83      -0.002
  YS02001770           JUNCTION   1905.05  1905.05     0  01:50        2.87        2.92      -0.007
  YS02001774           JUNCTION      0.00   852.10     0  01:54           0       0.794       0.118
  YS02001779           JUNCTION      0.01   851.76     0  01:54    0.000144       0.747      -0.100
  YS02001783           JUNCTION      0.00  1187.80     0  01:49           0        5.27       0.003
  YS02001784           JUNCTION      1.06  1190.08     0  01:49      0.0305         5.3       0.010
  YS02001786           JUNCTION      0.06  1189.47     0  01:49     0.00162         5.3       0.013
  YS02001788           JUNCTION      0.07  1190.61     0  01:49     0.00204         5.3       0.006
  YS02001790           JUNCTION      0.15  1198.34     0  01:49     0.00446        5.31       0.019
  YS02001791           JUNCTION      0.00  1311.56     0  01:48           0        5.31      -0.032
  YS02001793           JUNCTION      0.00  1260.78     0  01:47           0        5.31       0.002
  YS02001882           JUNCTION      0.00    66.82     0  01:40           0      0.0132       4.472
  YS02001884           JUNCTION      0.00    88.57     0  01:40           0      0.0498       5.222
  YS02001887           JUNCTION   1452.15  1457.40     0  01:49        1.96        1.99       0.218
  YS02001890           JUNCTION      0.00  1458.90     0  01:49           0        1.95       0.260
  YS02001895           JUNCTION      0.00   519.15     0  01:53           0         1.5       0.110
  YS02001898           JUNCTION      0.00   518.91     0  01:53           0         1.5       0.005
  YS02001901           JUNCTION      0.00   518.53     0  01:53           0         1.5       0.219
  YS02001904           JUNCTION      0.00   518.65     0  01:53           0         1.5       0.177
  YS02001907           JUNCTION      0.00  3288.01     0  01:50           0        5.88       0.304
  YS02001910           JUNCTION      0.00  1993.16     0  01:53           0         4.1       0.174
  YS02001915           JUNCTION   1684.42  2506.50     0  01:51        2.73        4.29       0.036
  YS02001918           JUNCTION      0.00   822.34     0  01:51           0        1.59      -0.011
  YS02001920           JUNCTION      2.87   822.12     0  01:51      0.0827        1.57       0.072
  YS02001923           JUNCTION      0.04   818.62     0  01:51     0.00109        1.47      -0.076
  YS02001926           JUNCTION      0.05   818.88     0  01:51      0.0015        1.45      -0.069
  YS02001929           JUNCTION    818.30   818.30     0  01:51        1.44        1.44      -0.042
  YS02006553           JUNCTION      0.00   794.58     0  02:17           0        3.01       0.396
  YS02006556           JUNCTION      0.00   794.59     0  02:17           0        3.02       0.253
  YS02006558           JUNCTION   1959.43  1959.43     0  01:50        2.88        5.59       0.059
  YS02006561           JUNCTION      0.00  1188.69     0  01:49           0        5.27       0.004
  YS02163301           JUNCTION      0.00   952.46     0  01:51           0        4.08       0.037
  YS02163601           JUNCTION      0.11  1366.78     0  01:41     0.00317        5.37       0.092
  YS02164001           JUNCTION      0.00  1366.55     0  01:41           0        5.37       0.040
  CC-1                 OUTFALL       0.00   683.00     0  00:00           0        4.69       0.000
  CC-2                 OUTFALL       0.00   683.00     0  00:00           0         4.1       0.000
  JK-1                 OUTFALL       0.00  1000.00     0  00:00           0        3.36       0.000
  JK-2                 OUTFALL       0.00  1000.00     0  00:00           0       0.237       0.000
  WSC                  OUTFALL       0.00   554.83     0  02:19           0        6.29       0.000
  CC-storage           STORAGE       0.00  3327.54     0  01:47           0        15.5      -0.129
  JK-storage           STORAGE       0.00  1247.69     0  01:49           0        5.46       0.035
  
  
  **********************
  Node Surcharge Summary
  **********************
  
  Surcharging occurs when water rises above the top of the highest conduit.
  ---------------------------------------------------------------------
                                               Max. Height   Min. Depth
                                   Hours       Above Crown    Below Rim
  Node                 Type      Surcharged         Meters       Meters
  ---------------------------------------------------------------------
  WS02006109           JUNCTION        2.34          0.595        1.225
  WS02006110           JUNCTION        0.90          0.573        1.277
  WS02006112           JUNCTION        1.03          0.121        1.559
  WS02006228           JUNCTION        2.34          0.870        1.330
  WS02006229           JUNCTION        2.35          0.993        1.457
  WS02006230           JUNCTION        0.94          1.111        0.459
  WS02006231           JUNCTION        1.16          0.953        0.577
  WS02006232           JUNCTION        2.37          1.057        0.423
  WS02006234           JUNCTION        1.64          1.085        0.155
  WS02006235           JUNCTION        2.28          1.290        0.000
  WS02006238           JUNCTION        2.34          1.430        0.000
  WS02006239           JUNCTION        2.31          1.290        0.000
  WS02006240           JUNCTION        2.34          1.390        0.000
  WS02006242           JUNCTION        2.36          0.820        0.000
  WS02006243           JUNCTION        2.34          0.770        0.000
  WS02006245           JUNCTION        2.34          0.850        0.000
  WS02006247           JUNCTION        2.34          0.760        0.000
  WS02006248           JUNCTION        2.33          0.380        0.000
  WS02006249           JUNCTION        2.33          0.390        0.000
  WS02006251           JUNCTION        1.27          0.431        0.749
  WS02006252           JUNCTION        2.48          1.100        0.000
  WS02006256           JUNCTION        6.82          2.050        0.000
  YS02001580           JUNCTION        0.99          0.450        0.000
  YS02001583           JUNCTION        1.00          0.500        0.000
  YS02001586           JUNCTION        1.19          0.510        0.000
  YS02001590           JUNCTION        1.28          0.750        0.000
  YS02001593           JUNCTION        1.29          0.711        0.129
  YS02001596           JUNCTION        1.44          0.954        0.116
  YS02001600           JUNCTION        1.56          1.190        0.000
  YS02001601           JUNCTION        1.79          1.440        0.000
  YS02001602           JUNCTION        1.72          1.270        0.000
  YS02001605           JUNCTION        1.69          1.180        0.000
  YS02001607           JUNCTION        1.32          0.667        0.013
  YS02001610           JUNCTION        1.35          0.680        0.000
  YS02001613           JUNCTION        1.31          0.700        0.000
  YS02001616           JUNCTION        1.26          0.610        0.000
  YS02001619           JUNCTION        1.24          0.610        0.000
  YS02001622           JUNCTION        1.25          0.620        0.000
  YS02001625           JUNCTION        1.44          0.780        0.000
  YS02001629           JUNCTION        1.18          0.470        0.000
  YS02001633           JUNCTION        1.48          1.060        0.000
  YS02001641           JUNCTION        1.44          0.960        0.140
  YS02001644           JUNCTION        1.42          0.920        0.000
  YS02001647           JUNCTION        1.21          0.793        0.107
  YS02001649           JUNCTION        1.37          1.050        0.000
  YS02001652           JUNCTION        1.14          0.952        0.178
  YS02001655           JUNCTION        0.91          0.870        0.330
  YS02001658           JUNCTION        0.51          0.733        0.567
  YS02001661           JUNCTION        0.21          0.508        0.882
  YS02001664           JUNCTION        0.05          0.186        1.124
  YS02001745           JUNCTION        0.06          0.129        1.221
  YS02001748           JUNCTION        0.41          0.722        0.468
  YS02001751           JUNCTION        0.77          0.753        0.447
  YS02001754           JUNCTION        1.06          0.826        0.324
  YS02001757           JUNCTION        1.43          1.164        0.046
  YS02001759           JUNCTION        1.35          1.203        0.007
  YS02001762           JUNCTION        1.33          1.138        0.012
  YS02001765           JUNCTION        1.29          1.059        0.041
  YS02001767           JUNCTION        1.24          0.993        0.037
  YS02001770           JUNCTION        1.20          0.920        0.000
  YS02001774           JUNCTION        1.31          1.017        0.033
  YS02001779           JUNCTION        1.03          0.680        0.000
  YS02001783           JUNCTION        0.81          0.490        1.110
  YS02001784           JUNCTION        0.78          0.365        1.125
  YS02001786           JUNCTION        0.66          0.104        1.326
  YS02001882           JUNCTION        0.74          0.830        0.000
  YS02001884           JUNCTION        0.76          0.870        0.000
  YS02001887           JUNCTION        0.80          0.899        0.051
  YS02001890           JUNCTION        0.82          0.760        0.000
  YS02001895           JUNCTION        0.73          0.567        0.183
  YS02001898           JUNCTION        0.72          0.534        0.206
  YS02001901           JUNCTION        0.78          0.680        0.190
  YS02001904           JUNCTION        0.77          0.639        0.211
  YS02001907           JUNCTION        1.08          0.950        0.000
  YS02001910           JUNCTION        0.85          1.016        0.084
  YS02001915           JUNCTION        0.74          1.000        0.000
  YS02001918           JUNCTION        0.64          0.810        0.000
  YS02001920           JUNCTION        0.66          1.140        0.000
  YS02001923           JUNCTION        0.29          0.820        0.000
  YS02001926           JUNCTION        0.31          0.900        0.000
  YS02001929           JUNCTION        0.18          0.780        0.000
  YS02006553           JUNCTION        1.11          1.018        0.172
  YS02006556           JUNCTION        0.96          1.015        0.335
  YS02006558           JUNCTION        0.95          1.037        0.363
  YS02006561           JUNCTION        0.60          0.170        0.980
  YS02163301           JUNCTION        1.46          0.944        0.086
  YS02163601           JUNCTION        1.51          1.066        0.014
  YS02164001           JUNCTION        1.45          0.967        0.133
  
  
  *********************
  Node Flooding Summary
  *********************
  
  Flooding refers to all water that overflows a node, whether it ponds or not.
  --------------------------------------------------------------------------
                                                             Total   Maximum
                                 Maximum   Time of Max       Flood    Ponded
                        Hours       Rate    Occurrence      Volume     Depth
  Node                 Flooded       LPS   days hr:min    10^6 ltr    Meters
  --------------------------------------------------------------------------
  WS02006235              0.01      5.45      0  02:49       0.000     0.000
  WS02006238              0.01      4.66      0  02:49       0.000     0.000
  WS02006239              0.01      6.26      0  02:38       0.000     0.000
  WS02006240              0.01     10.05      0  02:38       0.000     0.000
  WS02006242              0.01     27.95      0  02:38       0.000     0.000
  WS02006243              0.01      5.66      0  02:38       0.000     0.000
  WS02006245              0.01      6.39      0  02:38       0.000     0.000
  WS02006247              0.01      4.56      0  02:38       0.000     0.000
  WS02006248              0.02     27.04      0  02:38       0.001     0.000
  WS02006249              1.21    106.76      0  01:46       0.288     0.000
  WS02006252              0.01    245.63      0  00:00       0.000     0.000
  WS02006256              1.57    293.19      0  00:00       0.551     0.000
  YS02001580              0.01    125.69      0  01:39       0.000     0.000
  YS02001583              0.01     51.73      0  01:39       0.000     0.000
  YS02001586              0.82    983.15      0  01:52       1.152     0.000
  YS02001590              0.01      1.95      0  01:39       0.000     0.000
  YS02001600              0.01      0.80      0  01:39       0.000     0.000
  YS02001601              1.10   2241.59      0  01:51       2.881     0.000
  YS02001602              1.01     62.01      0  02:32       0.206     0.000
  YS02001605              0.01      6.00      0  01:39       0.000     0.000
  YS02001610              0.89    954.14      0  01:55       1.554     0.000
  YS02001613              0.01     29.83      0  01:39       0.000     0.000
  YS02001616              0.10     27.08      0  01:39       0.000     0.000
  YS02001619              0.22    658.28      0  01:52       0.302     0.000
  YS02001622              0.01    109.40      0  01:38       0.000     0.000
  YS02001625              0.88   1505.19      0  02:00       2.515     0.000
  YS02001629              0.29    526.38      0  01:50       0.285     0.000
  YS02001633              0.01      2.63      0  01:49       0.000     0.000
  YS02001644              0.41   2984.14      0  01:50       2.006     0.000
  YS02001649              0.01     14.94      0  01:49       0.000     0.000
  YS02001770              0.16   1054.19      0  01:50       0.328     0.000
  YS02001779              0.37    851.47      0  01:54       0.726     0.000
  YS02001882              0.01     26.90      0  01:40       0.000     0.000
  YS02001884              0.01     11.44      0  01:40       0.000     0.000
  YS02001890              0.32    941.74      0  01:49       0.450     0.000
  YS02001907              0.57   3287.51      0  01:50       3.150     0.000
  YS02001915              0.13    513.70      0  01:51       0.148     0.000
  YS02001918              0.01    156.05      0  01:43       0.002     0.000
  YS02001920              0.01     50.44      0  01:42       0.000     0.000
  YS02001923              0.01    106.22      0  01:42       0.000     0.000
  YS02001926              0.01    139.47      0  01:42       0.001     0.000
  YS02001929              0.01    184.09      0  01:42       0.001     0.000
  
  
  **********************
  Storage Volume Summary
  **********************
  
  ------------------------------------------------------------------------------------------------
                         Average    Avg   Evap  Exfil     Maximum    Max    Time of Max    Maximum
                          Volume   Pcnt   Pcnt   Pcnt      Volume   Pcnt     Occurrence    Outflow
  Storage Unit           1000 m³   Full   Loss   Loss     1000 m³   Full    days hr:min        LPS
  ------------------------------------------------------------------------------------------------
  CC-storage               2.745   42.8    0.0    0.0       5.407   84.4       0  02:29    1783.53
  JK-storage               0.165   56.8    0.0    0.0       0.213   73.0       0  02:00    2300.00
  
  
  ***********************
  Outfall Loading Summary
  ***********************
  
  -----------------------------------------------------------
                         Flow       Avg       Max       Total
                         Freq      Flow      Flow      Volume
  Outfall Node           Pcnt       LPS       LPS    10^6 ltr
  -----------------------------------------------------------
  CC-1                  20.89    683.00    683.00       4.691
  CC-2                  20.29    683.00    683.00       4.104
  JK-1                  12.00   1000.00   1000.00       3.362
  JK-2                   0.65   1000.00   1000.00       0.237
  WSC                   99.97    239.52    554.83       6.291
  -----------------------------------------------------------
  System                30.76   3605.52   3366.23      18.686
  
  
  ********************
  Link Flow Summary
  ********************
  
  -----------------------------------------------------------------------------
                                 Maximum  Time of Max   Maximum    Max/    Max/
                                  |Flow|   Occurrence   |Veloc|    Full    Full
  Link                 Type          LPS  days hr:min     m/sec    Flow   Depth
  -----------------------------------------------------------------------------
  1                    CONDUIT    554.83     0  02:19      2.83    0.19    0.30
  WS02003060WS02003069 CONDUIT    552.88     0  02:16      1.64    0.22    0.34
  WS02003066WSF200     CONDUIT    536.35     0  02:17      2.85    0.09    0.22
  WS02003067WS02003066 CONDUIT    536.33     0  02:15      1.21    0.17    0.42
  WS02003069WS02003072 CONDUIT    553.07     0  02:17      1.37    0.27    0.39
  WS02003072WS02003073 CONDUIT    553.04     0  02:18      1.43    1.19    0.37
  WS02004401WS02004402 CONDUIT    538.80     0  02:50      0.98    0.65    0.86
  WS02004402WS02004403 CONDUIT    537.79     0  02:13      0.97    0.77    0.88
  WS02004403WS02004404 CONDUIT    537.55     0  02:13      0.92    0.39    0.93
  WS02004404WS02004405 CONDUIT    537.63     0  02:13      1.08    5.27    0.96
  WS02004405WS02004406 CONDUIT    537.83     0  02:13      0.99    1.06    0.96
  WS02004406WS02004407 CONDUIT    537.32     0  02:13      1.04    0.24    0.63
  WS02004407WS02004409 CONDUIT    537.05     0  02:13      1.54    0.19    0.48
  WS02004409WS02004410 CONDUIT    536.77     0  02:14      1.02    0.69    0.67
  WS02004410WS02004411 CONDUIT    536.60     0  02:14      0.96    0.73    0.69
  WS02004411WS02004412 CONDUIT    536.49     0  02:14      0.92    0.76    0.69
  WS02004412WS02004413 CONDUIT    536.53     0  02:16      0.82    0.36    0.78
  WS02004413WS02003067 CONDUIT    536.32     0  02:16      1.11    0.23    0.59
  WS02006109WS02006110 CONDUIT    583.64     0  02:49      1.16    1.12    1.00
  WS02006110WS02006113 CONDUIT    603.03     0  02:49      1.45    0.55    0.79
  WS02006111WS02006112 CONDUIT    550.51     0  02:49      1.81    0.26    0.67
  WS02006112WS02006115 CONDUIT    578.21     0  02:49      0.85    0.34    0.87
  WS02006113WS02006111 CONDUIT    581.24     0  02:49      2.52    0.70    0.47
  WS02006115WS02006116 CONDUIT    554.86     0  02:50      1.05    0.71    0.76
  WS02006116WS02004401 CONDUIT    546.76     0  02:50      0.98    0.75    0.84
  WS02006228WS02006109 CONDUIT    577.71     0  02:49      1.15    2.52    1.00
  WS02006229WS02006228 CONDUIT    576.84     0  02:49      1.15    1.91    1.00
  WS02006230WS02006229 CONDUIT    580.54     0  02:49      1.51   12.92    1.00
  WS02006231WS02006230 CONDUIT    598.75     0  02:38      1.59    9.08    1.00
  WS02006232WS02006231 CONDUIT    595.22     0  02:38      1.55    1.25    1.00
  WS02006234WS02006232 CONDUIT    593.37     0  02:38      1.54    1.20    1.00
  WS02006235WS02006234 CONDUIT    578.64     0  02:37      1.50    6.11    1.00
  WS02006238WS02006235 CONDUIT    435.75     0  02:50      1.45    0.97    1.00
  WS02006239WS02006238 CONDUIT    430.75     0  02:50      1.12    1.38    1.00
  WS02006240WS02006239 CONDUIT    428.52     0  02:50      1.24    1.35    1.00
  WS02006242WS02006240 CONDUIT    422.67     0  02:50      1.13    1.68    1.00
  WS02006243WS02006242 CONDUIT    422.21     0  02:50      1.40    0.90    1.00
  WS02006245WS02006243 CONDUIT    421.15     0  02:40      1.45    1.25    1.00
  WS02006247WS02006245 CONDUIT    420.90     0  02:40      1.43    3.34    1.00
  WS02006248WS02006247 CONDUIT    420.91     0  02:25      1.44    0.92    1.00
  WS02006249WS02006248 CONDUIT    420.97     0  03:20      1.36    2.31    1.00
  WS02006251WS02006249 CONDUIT    459.02     0  00:00      1.99    1.32    1.00
  WS02006252WS02006251 CONDUIT    409.43     0  01:46     24.61    1.50    1.00
  WS02006256WS02006235 CONDUIT    288.91     0  00:00      4.23    3.06    1.00
  WSF200WS02003060     CONDUIT    536.48     0  02:17      2.06    0.12    0.28
  YS02001580YS02001583 CONDUIT    135.97     0  01:39      0.66    0.53    1.00
  YS02001583YS02001586 CONDUIT    156.11     0  01:39      0.68    0.24    1.00
  YS02001586YS02001590 CONDUIT    318.30     0  02:16      1.25    0.56    1.00
  YS02001590YS02001593 CONDUIT    318.17     0  02:16      1.13    2.00    1.00
  YS02001593YS02001596 CONDUIT    317.97     0  01:44      1.70    0.50    1.00
  YS02001596YS02001600 CONDUIT    318.03     0  02:16      1.25    0.62    1.00
  YS02001600YS02001601 CONDUIT    318.31     0  01:53      1.13    0.55    1.00
  YS02001601YS02001602 CONDUIT    522.47     0  01:38      1.85    1.89    1.00
  YS02001602YS02001605 CONDUIT    522.52     0  01:38      1.85   11.06    1.00
  YS02001605YS02001607 CONDUIT    522.62     0  01:38      1.85    2.87    1.00
  YS02001607YS02001610 CONDUIT    528.72     0  01:38      0.67    0.50    1.00
  YS02001610YS02001613 CONDUIT    618.16     0  01:55      0.79    0.71    1.00
  YS02001613YS02001616 CONDUIT    617.39     0  01:55      0.79    0.53    1.00
  YS02001616YS02001619 CONDUIT    617.74     0  01:55      0.79    1.07    1.00
  YS02001619YS02001622 CONDUIT   1053.96     0  01:54      1.34    1.55    1.00
  YS02001622YS02001625 CONDUIT   1053.71     0  01:57      1.34    0.56    1.00
  YS02001625YS02001629 CONDUIT    923.34     0  01:38      1.19    0.44    1.00
  YS02001629YS02163301 CONDUIT    952.36     0  01:51      1.21    1.17    1.00
  YS02001633YS02163601 CONDUIT   1366.67     0  01:41      1.74    1.43    1.00
  YS02001641YS02001644 CONDUIT   1365.99     0  01:41      1.74    4.42    1.00
  YS02001644YS02001647 CONDUIT   1773.94     0  01:41      2.26    1.04    1.00
  YS02001647YS02001649 CONDUIT   1794.64     0  01:41      2.31    0.95    1.00
  YS02001649YS02001757 CONDUIT   1975.29     0  01:41      2.52    1.20    1.00
  YS02001652YS02001649 CONDUIT   1534.89     0  01:50      1.95    0.76    1.00
  YS02001655YS02001652 CONDUIT   1533.74     0  01:50      1.95    0.74    1.00
  YS02001658YS02001655 CONDUIT   1533.41     0  01:50      1.95    0.65    1.00
  YS02001661YS02001658 CONDUIT   1533.65     0  01:50      2.30    0.60    1.00
  YS02001664YS02001661 CONDUIT   1534.15     0  01:50      2.29    0.48    1.00
  YS02001745YS02001748 CONDUIT    974.67     0  01:49      2.18    0.38    1.00
  YS02001748YS02001751 CONDUIT    975.28     0  01:49      1.69    0.49    1.00
  YS02001751YS02001754 CONDUIT    976.02     0  01:49      1.45    0.47    1.00
  YS02001754YS02001757 CONDUIT    976.90     0  01:49      1.24    0.39    1.00
  YS02001757CaochengTiaoxuchi CONDUIT   3327.54     0  01:47      4.24    1.44    1.00
  YS02001759YS02001757 CONDUIT   1424.51     0  01:48      1.81    1.01    1.00
  YS02001762YS02001759 CONDUIT    722.04     0  01:44      0.92    0.83    1.00
  YS02001765YS02001762 CONDUIT    720.94     0  01:44      0.92    0.68    1.00
  YS02001767YS02001765 CONDUIT    723.30     0  01:44      0.92    0.91    1.00
  YS02001770YS02001767 CONDUIT    724.21     0  01:44      0.92    2.87    1.00
  YS02001774YS02001770 CONDUIT    852.10     0  01:54      1.08    0.54    1.00
  YS02001779YS02001774 CONDUIT    851.75     0  01:54      1.08    0.43    1.00
  YS02001783YS02001784 CONDUIT   1189.02     0  01:49      2.37    1.64    1.00
  YS02001784YS02001785 CONDUIT   1189.41     0  01:49      2.37    2.77    1.00
  YS02001786YS02001788 CONDUIT   1190.54     0  01:49      2.51    2.29    0.90
  YS02001788YS02001790 CONDUIT   1198.19     0  01:49      2.73    0.88    0.85
  YS02001790YS02001791 CONDUIT   1311.56     0  01:48      3.46    1.43    0.71
  YS02001791YS02001793 CONDUIT   1260.78     0  01:47      6.76    0.54    0.45
  YS02001793JiankangQianchi CONDUIT   1247.69     0  01:49      2.49    0.10    0.65
  YS02001882YS02001884 CONDUIT     66.82     0  01:40      0.18    0.08    1.00
  YS02001884YS02001887 CONDUIT     88.57     0  01:40      0.13    0.12    1.00
  YS02001887YS02001890 CONDUIT   1458.90     0  01:49      1.86    2.50    1.00
  YS02001890YS02001895 CONDUIT    519.15     0  01:53      0.66    0.24    1.00
  YS02001895YS02001898 CONDUIT    518.91     0  01:53      0.66    0.90    1.00
  YS02001898YS02001901 CONDUIT    518.53     0  01:53      0.66    0.33    1.00
  YS02001901YS02001904 CONDUIT    518.65     0  01:53      0.66    0.80    1.00
  YS02001904YS02001907 CONDUIT    519.21     0  01:53      0.66    0.18    1.00
  YS02001907YS02006553 CONDUIT    794.58     0  02:17      0.88    0.93    1.00
  YS02001910YS02001907 CONDUIT   1993.03     0  01:54      2.54    1.12    1.00
  YS02001915YS02001910 CONDUIT   1993.16     0  01:53      2.54    0.99    1.00
  YS02001918YS02001915 CONDUIT    822.15     0  01:51      1.05    0.45    1.00
  YS02001920YS02001918 CONDUIT    822.34     0  01:51      1.05    0.80    1.00
  YS02001923YS02001920 CONDUIT    819.25     0  01:51      1.04    0.37    1.00
  YS02001926YS02001923 CONDUIT    818.58     0  01:51      1.04    1.17    1.00
  YS02001929YS02001926 CONDUIT    818.83     0  01:51      1.12    0.39    1.00
  YS02006553YS02006556 CONDUIT    794.59     0  02:17      1.01    0.68    1.00
  YS02006556YS02006558 CONDUIT    794.58     0  02:18      1.01    0.63    1.00
  YS02006558YS02006561 CONDUIT   1188.69     0  01:49      4.20    2.63    1.00
  YS02006561YS02001783 CONDUIT   1187.80     0  01:49      2.36    0.62    1.00
  YS02163301YS02001633 CONDUIT    952.46     0  01:51      1.21    0.90    1.00
  YS02163601YS02164001 CONDUIT   1366.55     0  01:41      1.74    1.21    1.00
  YS02164001YS02001641 CONDUIT   1366.21     0  01:41      1.74    1.87    1.00
  CC-R1                PUMP       683.00     0  00:00              1.00
  CC-R2                PUMP       683.00     0  00:00              1.00
  CC-S1                PUMP       200.00     0  00:00              1.00
  CC-S2                PUMP       200.00     0  00:00              1.00
  JK-R1                PUMP      1000.00     0  00:00              1.00
  JK-R2                PUMP      1000.00     0  00:00              1.00
  JK-S                 PUMP       300.00     0  00:00              1.00
  
  
  ***************************
  Flow Classification Summary
  ***************************
  
  -------------------------------------------------------------------------------------
                      Adjusted    ---------- Fraction of Time in Flow Class ---------- 
                       /Actual         Up    Down  Sub   Sup   Up    Down  Norm  Inlet 
  Conduit               Length    Dry  Dry   Dry   Crit  Crit  Crit  Crit  Ltd   Ctrl  
  -------------------------------------------------------------------------------------
  1                       1.00   0.00  0.00  0.00  0.00  1.00  0.00  0.00  0.37  0.00
  WS02003060WS02003069    1.00   0.00  0.00  0.00  0.98  0.02  0.00  0.00  0.61  0.00
  WS02003066WSF200        1.00   0.13  0.00  0.00  0.00  0.87  0.00  0.00  0.74  0.00
  WS02003067WS02003066    1.00   0.10  0.02  0.00  0.88  0.00  0.00  0.00  0.00  0.00
  WS02003069WS02003072    1.00   0.00  0.00  0.00  0.99  0.01  0.00  0.00  0.69  0.00
  WS02003072WS02003073    1.00   0.00  0.00  0.00  0.00  0.00  0.00  1.00  0.00  0.00
  WS02004401WS02004402    1.00   0.02  0.00  0.00  0.98  0.00  0.00  0.00  0.00  0.00
  WS02004402WS02004403    1.00   0.02  0.00  0.00  0.97  0.00  0.00  0.00  0.00  0.00
  WS02004403WS02004404    1.00   0.00  0.03  0.00  0.97  0.00  0.00  0.00  0.00  0.00
  WS02004404WS02004405    1.00   0.00  0.00  0.00  1.00  0.00  0.00  0.00  0.01  0.00
  WS02004405WS02004406    1.00   0.00  0.00  0.00  1.00  0.00  0.00  0.00  0.00  0.00
  WS02004406WS02004407    1.00   0.00  0.05  0.00  0.95  0.00  0.00  0.00  0.00  0.00
  WS02004407WS02004409    1.00   0.05  0.00  0.00  0.94  0.01  0.00  0.00  0.94  0.00
  WS02004409WS02004410    1.00   0.05  0.00  0.00  0.95  0.00  0.00  0.00  0.03  0.00
  WS02004410WS02004411    1.00   0.05  0.00  0.00  0.95  0.00  0.00  0.00  0.01  0.00
  WS02004411WS02004412    1.00   0.05  0.00  0.00  0.95  0.00  0.00  0.00  0.00  0.00
  WS02004412WS02004413    1.00   0.05  0.00  0.00  0.94  0.00  0.00  0.00  0.01  0.00
  WS02004413WS02003067    1.00   0.06  0.04  0.00  0.00  0.00  0.90  0.00  0.00  0.00
  WS02006109WS02006110    1.00   0.00  0.01  0.00  0.98  0.00  0.01  0.00  0.00  0.00
  WS02006110WS02006113    1.00   0.01  0.01  0.00  0.98  0.00  0.00  0.00  0.00  0.00
  WS02006111WS02006112    1.00   0.02  0.00  0.00  0.98  0.00  0.00  0.00  0.98  0.00
  WS02006112WS02006115    1.00   0.02  0.00  0.00  0.97  0.00  0.00  0.00  0.00  0.00
  WS02006113WS02006111    1.00   0.02  0.00  0.00  0.00  0.98  0.00  0.00  0.19  0.00
  WS02006115WS02006116    1.00   0.02  0.00  0.00  0.97  0.00  0.00  0.01  0.00  0.00
  WS02006116WS02004401    1.00   0.02  0.00  0.00  0.98  0.00  0.00  0.00  0.00  0.00
  WS02006228WS02006109    1.00   0.00  0.00  0.00  1.00  0.00  0.00  0.00  0.00  0.00
  WS02006229WS02006228    1.00   0.00  0.00  0.00  0.99  0.00  0.00  0.01  0.00  0.00
  WS02006230WS02006229    1.00   0.00  0.00  0.00  0.99  0.00  0.00  0.01  0.01  0.00
  WS02006231WS02006230    1.00   0.00  0.00  0.00  0.30  0.00  0.69  0.00  0.00  0.00
  WS02006232WS02006231    1.00   0.00  0.00  0.00  0.98  0.00  0.02  0.00  0.00  0.00
  WS02006234WS02006232    1.00   0.00  0.00  0.00  1.00  0.00  0.00  0.00  0.05  0.00
  WS02006235WS02006234    1.00   0.00  0.00  0.00  0.91  0.00  0.09  0.00  0.00  0.00
  WS02006238WS02006235    1.00   0.00  0.00  0.00  1.00  0.00  0.00  0.00  0.00  0.00
  WS02006239WS02006238    1.00   0.00  0.00  0.00  1.00  0.00  0.00  0.00  0.13  0.00
  WS02006240WS02006239    1.00   0.00  0.00  0.00  0.77  0.00  0.00  0.23  0.04  0.00
  WS02006242WS02006240    1.00   0.00  0.00  0.00  0.98  0.00  0.02  0.00  0.00  0.00
  WS02006243WS02006242    1.00   0.00  0.00  0.00  0.98  0.00  0.00  0.02  0.38  0.00
  WS02006245WS02006243    1.00   0.00  0.00  0.00  0.89  0.00  0.00  0.11  0.02  0.00
  WS02006247WS02006245    1.00   0.00  0.00  0.00  0.98  0.00  0.00  0.02  0.00  0.00
  WS02006248WS02006247    1.00   0.00  0.00  0.00  0.98  0.00  0.00  0.02  0.33  0.00
  WS02006249WS02006248    1.00   0.00  0.00  0.00  0.61  0.00  0.39  0.00  0.00  0.00
  WS02006251WS02006249    1.00   0.00  0.00  0.00  0.99  0.01  0.00  0.00  0.42  0.00
  WS02006252WS02006251    1.00   0.00  0.46  0.00  0.16  0.00  0.38  0.00  0.00  0.00
  WS02006256WS02006235    1.00   0.00  0.00  0.00  1.00  0.00  0.00  0.00  0.00  0.00
  WSF200WS02003060        1.00   0.00  0.13  0.00  0.12  0.75  0.00  0.00  0.44  0.00
  YS02001580YS02001583    1.00   0.20  0.55  0.00  0.25  0.00  0.00  0.00  0.64  0.00
  YS02001583YS02001586    1.00   0.40  0.29  0.00  0.30  0.00  0.00  0.00  0.64  0.00
  YS02001586YS02001590    1.00   0.13  0.00  0.00  0.46  0.04  0.00  0.38  0.33  0.00
  YS02001590YS02001593    1.00   0.13  0.01  0.00  0.18  0.00  0.69  0.00  0.00  0.00
  YS02001593YS02001596    1.00   0.13  0.00  0.00  0.20  0.01  0.00  0.67  0.02  0.00
  YS02001596YS02001600    1.00   0.13  0.00  0.00  0.24  0.01  0.00  0.62  0.03  0.00
  YS02001600YS02001601    1.00   0.13  0.01  0.00  0.86  0.00  0.00  0.00  0.58  0.00
  YS02001601YS02001602    1.00   0.13  0.01  0.00  0.87  0.00  0.00  0.00  0.00  0.00
  YS02001602YS02001605    1.00   0.13  0.00  0.00  0.87  0.00  0.00  0.00  0.00  0.00
  YS02001605YS02001607    1.00   0.13  0.00  0.00  0.87  0.00  0.00  0.00  0.00  0.00
  YS02001607YS02001610    1.00   0.13  0.00  0.00  0.86  0.00  0.00  0.00  0.01  0.00
  YS02001610YS02001613    1.00   0.13  0.00  0.00  0.87  0.00  0.00  0.00  0.00  0.00
  YS02001613YS02001616    1.00   0.13  0.00  0.00  0.87  0.00  0.00  0.00  0.00  0.00
  YS02001616YS02001619    1.00   0.13  0.00  0.00  0.87  0.00  0.00  0.00  0.00  0.00
  YS02001619YS02001622    1.00   0.13  0.00  0.00  0.87  0.00  0.00  0.00  0.28  0.00
  YS02001622YS02001625    1.00   0.13  0.00  0.00  0.87  0.00  0.00  0.00  0.03  0.00
  YS02001625YS02001629    1.00   0.13  0.04  0.00  0.22  0.00  0.62  0.00  0.00  0.00
  YS02001629YS02163301    1.00   0.14  0.01  0.00  0.85  0.00  0.00  0.00  0.00  0.00
  YS02001633YS02163601    1.00   0.00  0.01  0.00  0.99  0.00  0.00  0.00  0.14  0.00
  YS02001641YS02001644    1.00   0.00  0.01  0.00  0.99  0.00  0.00  0.00  0.00  0.00
  YS02001644YS02001647    1.00   0.00  0.16  0.00  0.84  0.00  0.00  0.00  0.00  0.00
  YS02001647YS02001649    1.00   0.00  0.16  0.00  0.62  0.23  0.00  0.00  0.56  0.00
  YS02001649YS02001757    1.00   0.00  0.00  0.00  0.90  0.10  0.00  0.00  0.39  0.00
  YS02001652YS02001649    1.00   0.00  0.00  0.00  0.97  0.03  0.00  0.00  0.70  0.00
  YS02001655YS02001652    1.00   0.00  0.00  0.00  0.25  0.01  0.00  0.74  0.04  0.00
  YS02001658YS02001655    1.00   0.00  0.14  0.00  0.73  0.13  0.00  0.00  0.61  0.00
  YS02001661YS02001658    1.00   0.14  0.00  0.00  0.57  0.29  0.00  0.00  0.64  0.00
  YS02001664YS02001661    1.00   0.13  0.00  0.00  0.80  0.07  0.00  0.00  0.82  0.00
  YS02001745YS02001748    1.00   0.00  0.00  0.00  0.18  0.00  0.00  0.82  0.05  0.00
  YS02001748YS02001751    1.00   0.00  0.00  0.00  0.89  0.11  0.00  0.00  0.73  0.00
  YS02001751YS02001754    1.00   0.00  0.00  0.00  0.24  0.01  0.00  0.75  0.03  0.00
  YS02001754YS02001757    1.00   0.00  0.00  0.00  1.00  0.00  0.00  0.00  0.75  0.00
  YS02001757CaochengTiaoxuchi    1.00   0.00  0.00  0.00  0.99  0.01  0.00  0.00  0.57  0.00
  YS02001759YS02001757    1.00   0.00  0.00  0.00  0.98  0.02  0.00  0.00  0.50  0.00
  YS02001762YS02001759    1.00   0.00  0.00  0.00  1.00  0.00  0.00  0.00  0.04  0.00
  YS02001765YS02001762    1.00   0.00  0.00  0.00  1.00  0.00  0.00  0.00  0.62  0.00
  YS02001767YS02001765    1.00   0.00  0.00  0.00  1.00  0.00  0.00  0.00  0.01  0.00
  YS02001770YS02001767    1.00   0.00  0.00  0.00  1.00  0.00  0.00  0.00  0.00  0.00
  YS02001774YS02001770    1.00   0.00  0.13  0.00  0.71  0.00  0.16  0.00  0.02  0.00
  YS02001779YS02001774    1.00   0.00  0.00  0.00  1.00  0.00  0.00  0.00  0.71  0.00
  YS02001783YS02001784    1.00   0.00  0.16  0.00  0.84  0.00  0.00  0.00  0.54  0.00
  YS02001784YS02001785    1.00   0.00  0.00  0.00  1.00  0.00  0.00  0.00  0.15  0.00
  YS02001786YS02001788    1.00   0.00  0.00  0.00  0.80  0.20  0.00  0.00  0.00  0.00
  YS02001788YS02001790    1.00   0.00  0.00  0.00  0.22  0.78  0.00  0.00  0.78  0.00
  YS02001790YS02001791    1.00   0.00  0.00  0.00  0.01  0.99  0.00  0.00  0.16  0.00
  YS02001791YS02001793    1.00   0.00  0.00  0.00  0.00  1.00  0.00  0.00  0.02  0.00
  YS02001793JiankangQianchi    1.00   0.00  0.00  0.00  0.97  0.03  0.00  0.00  0.93  0.00
  YS02001882YS02001884    1.00   0.14  0.01  0.00  0.85  0.00  0.00  0.00  0.00  0.00
  YS02001884YS02001887    1.00   0.06  0.05  0.00  0.89  0.00  0.00  0.00  0.00  0.00
  YS02001887YS02001890    1.00   0.00  0.00  0.00  0.97  0.00  0.03  0.00  0.00  0.00
  YS02001890YS02001895    1.00   0.00  0.15  0.00  0.85  0.00  0.00  0.00  0.00  0.00
  YS02001895YS02001898    1.00   0.15  0.00  0.00  0.83  0.00  0.01  0.00  0.00  0.00
  YS02001898YS02001901    1.00   0.15  0.00  0.00  0.85  0.00  0.00  0.00  0.00  0.00
  YS02001901YS02001904    1.00   0.15  0.00  0.00  0.85  0.00  0.00  0.00  0.00  0.00
  YS02001904YS02001907    1.00   0.00  0.15  0.00  0.85  0.00  0.00  0.00  0.00  0.00
  YS02001907YS02006553    1.00   0.00  0.02  0.00  0.98  0.00  0.00  0.00  0.00  0.00
  YS02001910YS02001907    1.00   0.00  0.00  0.00  0.97  0.00  0.00  0.03  0.11  0.00
  YS02001915YS02001910    1.00   0.00  0.00  0.00  0.97  0.03  0.00  0.00  0.13  0.00
  YS02001918YS02001915    1.00   0.00  0.01  0.00  0.98  0.02  0.00  0.00  0.70  0.00
  YS02001920YS02001918    1.00   0.00  0.01  0.00  0.99  0.00  0.00  0.00  0.00  0.00
  YS02001923YS02001920    1.00   0.00  0.00  0.00  1.00  0.00  0.00  0.00  0.89  0.00
  YS02001926YS02001923    1.00   0.00  0.07  0.00  0.09  0.00  0.83  0.00  0.00  0.00
  YS02001929YS02001926    1.00   0.00  0.13  0.00  0.87  0.00  0.00  0.00  0.79  0.00
  YS02006553YS02006556    1.00   0.01  0.00  0.00  0.99  0.00  0.00  0.00  0.03  0.00
  YS02006556YS02006558    1.00   0.00  0.00  0.00  1.00  0.00  0.00  0.00  0.00  0.00
  YS02006558YS02006561    1.00   0.16  0.00  0.00  0.09  0.75  0.00  0.00  0.17  0.00
  YS02006561YS02001783    1.00   0.16  0.00  0.00  0.13  0.71  0.00  0.00  0.65  0.00
  YS02163301YS02001633    1.00   0.00  0.14  0.00  0.86  0.00  0.00  0.00  0.00  0.00
  YS02163601YS02164001    1.00   0.00  0.08  0.00  0.92  0.00  0.00  0.00  0.00  0.00
  YS02164001YS02001641    1.00   0.01  0.07  0.00  0.92  0.00  0.00  0.00  0.05  0.00
  
  
  *************************
  Conduit Surcharge Summary
  *************************
  
  ----------------------------------------------------------------------------
                                                           Hours        Hours 
                         --------- Hours Full --------   Above Full   Capacity
  Conduit                Both Ends  Upstream  Dnstream   Normal Flow   Limited
  ----------------------------------------------------------------------------
  WS02003072WS02003073        0.01      0.01      0.01      1.73         0.01
  WS02004404WS02004405        0.01      0.01      0.01      4.28         0.01
  WS02004405WS02004406        0.01      0.01      0.01      0.91         0.01
  WS02006109WS02006110        0.90      0.90      2.36      1.11         0.01
  WS02006110WS02006113        0.01      0.01      2.35      0.01         0.01
  WS02006111WS02006112        0.01      0.01      2.50      0.01         0.01
  WS02006112WS02006115        0.01      0.01      1.03      0.01         0.01
  WS02006228WS02006109        2.34      2.37      2.34      2.91         2.33
  WS02006229WS02006228        2.34      2.35      2.34      2.52         2.31
  WS02006230WS02006229        2.41      2.45      2.41      5.27         2.41
  WS02006231WS02006230        0.93      0.93      1.24      4.70         0.01
  WS02006232WS02006231        1.16      1.16      2.37      1.25         0.01
  WS02006234WS02006232        2.26      2.26      2.37      1.23         1.21
  WS02006235WS02006234        1.62      1.64      2.27      4.41         0.03
  WS02006238WS02006235        2.29      2.29      2.37      0.01         0.01
  WS02006239WS02006238        2.34      2.37      2.34      2.38         2.07
  WS02006240WS02006239        2.31      2.35      2.31      2.37         1.93
  WS02006242WS02006240        2.34      2.34      2.37      2.49         0.01
  WS02006243WS02006242        2.34      2.34      2.36      0.01         0.07
  WS02006245WS02006243        2.34      2.34      2.34      1.40         1.44
  WS02006247WS02006245        2.34      2.34      2.34      4.19         2.31
  WS02006248WS02006247        2.33      2.33      2.34      0.01         0.08
  WS02006249WS02006248        2.33      2.33      2.33      4.12         0.01
  WS02006251WS02006249        2.33      2.33      2.33      2.42         2.21
  WS02006252WS02006251        2.47      2.47      2.48      2.47         0.01
  WS02006256WS02006235        4.47      4.54      6.78      1.57         0.01
  YS02001580YS02001583        0.99      0.99      1.06      0.01         0.01
  YS02001583YS02001586        1.00      1.00      1.19      0.01         0.01
  YS02001586YS02001590        1.20      1.20      1.28      0.01         0.01
  YS02001590YS02001593        1.29      1.29      1.31      1.34         0.01
  YS02001593YS02001596        1.30      1.30      1.44      0.01         0.01
  YS02001596YS02001600        1.48      1.48      1.56      0.01         0.01
  YS02001600YS02001601        1.60      1.60      1.79      0.01         0.01
  YS02001601YS02001602        1.72      1.72      1.82      1.54         0.01
  YS02001602YS02001605        1.69      1.69      1.72      2.49         0.01
  YS02001605YS02001607        1.66      1.69      1.66      1.74         1.64
  YS02001607YS02001610        1.32      1.32      1.35      0.01         0.01
  YS02001610YS02001613        1.31      1.31      1.35      0.01         0.01
  YS02001613YS02001616        1.26      1.26      1.31      0.01         0.01
  YS02001616YS02001619        1.24      1.24      1.26      0.20         0.15
  YS02001619YS02001622        1.24      1.24      1.25      1.20         1.07
  YS02001622YS02001625        1.25      1.25      1.44      0.01         0.01
  YS02001625YS02001629        1.18      1.18      1.44      0.01         0.01
  YS02001629YS02163301        1.45      1.45      1.46      0.14         0.12
  YS02001633YS02163601        1.48      1.48      1.51      0.10         0.18
  YS02001641YS02001644        1.42      1.44      1.42      1.85         1.40
  YS02001644YS02001647        1.21      1.21      1.42      0.03         0.01
  YS02001647YS02001649        1.21      1.21      1.37      0.01         0.01
  YS02001649YS02001757        1.36      1.37      1.43      0.07         0.03
  YS02001652YS02001649        1.17      1.17      1.37      0.01         0.01
  YS02001655YS02001652        0.91      0.91      1.14      0.01         0.01
  YS02001658YS02001655        0.51      0.51      0.91      0.01         0.01
  YS02001661YS02001658        0.21      0.21      0.51      0.01         0.01
  YS02001664YS02001661        0.05      0.05      0.27      0.01         0.01
  YS02001745YS02001748        0.06      0.06      0.41      0.01         0.01
  YS02001748YS02001751        0.48      0.48      0.77      0.01         0.01
  YS02001751YS02001754        0.77      0.77      1.06      0.01         0.01
  YS02001754YS02001757        1.11      1.11      1.43      0.01         0.01
  YS02001757CaochengTiaoxuchi        1.42      1.43      2.35      0.51         0.48
  YS02001759YS02001757        1.35      1.35      1.43      0.03         0.05
  YS02001762YS02001759        1.33      1.33      1.35      0.01         0.02
  YS02001765YS02001762        1.29      1.29      1.33      0.01         0.01
  YS02001767YS02001765        1.24      1.24      1.29      0.01         0.02
  YS02001770YS02001767        1.24      1.24      1.24      0.72         0.73
  YS02001774YS02001770        1.20      1.20      1.31      0.01         0.01
  YS02001779YS02001774        1.03      1.03      1.31      0.01         0.01
  YS02001783YS02001784        0.78      0.81      0.78      1.00         0.78
  YS02001784YS02001785        0.66      0.78      0.66      1.34         0.66
  YS02001786YS02001788        0.01      0.66      0.01      1.13         0.01
  YS02001790YS02001791        0.01      0.01      0.01      0.77         0.01
  YS02001793JiankangQianchi        0.01      0.01      7.70      0.01         0.01
  YS02001882YS02001884        0.74      0.74      0.76      0.01         0.01
  YS02001884YS02001887        0.78      0.78      0.80      0.01         0.01
  YS02001887YS02001890        0.82      0.82      0.83      0.26         0.01
  YS02001890YS02001895        0.73      0.73      0.85      0.01         0.01
  YS02001895YS02001898        0.72      0.72      0.73      0.01         0.01
  YS02001898YS02001901        0.73      0.73      0.78      0.01         0.01
  YS02001901YS02001904        0.77      0.77      0.78      0.01         0.01
  YS02001904YS02001907        0.77      0.77      1.11      0.01         0.01
  YS02001907YS02006553        1.35      1.35      1.45      0.01         0.02
  YS02001910YS02001907        0.85      0.85      1.08      0.17         0.16
  YS02001915YS02001910        0.74      0.74      0.85      0.01         0.02
  YS02001918YS02001915        0.64      0.64      0.74      0.01         0.01
  YS02001920YS02001918        0.64      0.64      0.66      0.01         0.01
  YS02001923YS02001920        0.59      0.59      0.66      0.01         0.01
  YS02001926YS02001923        0.29      0.29      0.31      0.11         0.01
  YS02001929YS02001926        0.18      0.18      0.31      0.01         0.01
  YS02006553YS02006556        0.96      0.96      1.11      0.01         0.01
  YS02006556YS02006558        1.02      1.02      1.14      0.01         0.01
  YS02006558YS02006561        0.68      0.95      0.68      1.27         0.68
  YS02006561YS02001783        0.60      0.60      0.81      0.01         0.01
  YS02163301YS02001633        1.46      1.46      1.49      0.01         0.01
  YS02163601YS02164001        1.45      1.45      1.51      0.07         0.01
  YS02164001YS02001641        1.44      1.45      1.44      0.90         0.83
  
  
  ***************
  Pumping Summary
  ***************
  
  ---------------------------------------------------------------------------------------------------------
                                                  Min       Avg       Max     Total     Power    % Time Off
                        Percent   Number of      Flow      Flow      Flow    Volume     Usage    Pump Curve
  Pump                 Utilized   Start-Ups       LPS       LPS       LPS  10^6 ltr     Kw-hr    Low   High
  ---------------------------------------------------------------------------------------------------------
  CC-R1                   23.84           2      0.00    683.00    683.00     4.690     91.14    0.0    4.4
  CC-R2                   20.87           3      0.00    683.00    683.00     4.106     79.97    0.0   10.0
  CC-S1                   46.52           4      0.00    200.00    200.00     2.679     14.48    0.0    0.0
  CC-S2                   38.16           6      0.00    200.00    200.00     2.198     11.70    0.0    0.0
  JK-R1                   11.67          14      0.00   1000.00   1000.00     3.360     39.01    0.0    0.0
  JK-R2                    0.82           2      0.00   1000.00   1000.00     0.236      1.79    0.0    0.0
  JK-S                    19.60          25      0.00    300.00    300.00     1.694     23.11    0.0    0.0
  

  Analysis begun on:  Mon Jan 13 10:10:33 2025
  Analysis ended on:  Mon Jan 13 10:10:35 2025
  Total elapsed time: 00:00:02