
  EPA STORM WATER MANAGEMENT MODEL - VERSION 5.2 (Build 5.2.4)
  PYSWMM TOOLKIT API - VERSION v1.0 (2023-11-27)
  ------------------------------------------------------------

  WARNING 04: minimum elevation drop used for Conduit WS02004404WS02004405
  WARNING 03: negative offset ignored for Link YS02001904YS02001907
  
  ****************
  Analysis Options
  ****************
  Flow Units ............... LPS
  Process Models:
    Rainfall/Runoff ........ YES
    RDII ................... NO
    Snowmelt ............... NO
    Groundwater ............ NO
    Flow Routing ........... YES
    Ponding Allowed ........ NO
    Water Quality .......... NO
  Infiltration Method ...... HORTON
  Flow Routing Method ...... DYNWAVE
  Surcharge Method ......... EXTRAN
  Starting Date ............ 08/28/2015 08:00:00
  Ending Date .............. 08/28/2015 16:00:00
  Antecedent Dry Days ...... 8.0
  Report Time Step ......... 00:01:00
  Wet Time Step ............ 00:01:00
  Dry Time Step ............ 00:01:00
  Routing Time Step ........ 30.00 sec
  Variable Time Step ....... YES
  Maximum Trials ........... 8
  Number of Threads ........ 4
  Head Tolerance ........... 0.001500 m
  
  
  **************************        Volume         Depth
  Runoff Quantity Continuity     hectare-m            mm
  **************************     ---------       -------
  Total Precipitation ......         2.665        80.329
  Evaporation Loss .........         0.000         0.000
  Infiltration Loss ........         0.102         3.082
  Surface Runoff ...........         2.530        76.267
  Final Storage ............         0.033         0.995
  Continuity Error (%) .....        -0.019
  
  
  **************************        Volume        Volume
  Flow Routing Continuity        hectare-m      10^6 ltr
  **************************     ---------     ---------
  Dry Weather Inflow .......         0.025         0.251
  Wet Weather Inflow .......         2.530        25.299
  Groundwater Inflow .......         0.000         0.000
  RDII Inflow ..............         0.000         0.000
  External Inflow ..........         0.083         0.834
  External Outflow .........         1.746        17.460
  Flooding Loss ............         0.914         9.143
  Evaporation Loss .........         0.000         0.000
  Exfiltration Loss ........         0.000         0.000
  Initial Stored Volume ....         0.243         2.431
  Final Stored Volume ......         0.226         2.261
  Continuity Error (%) .....        -0.174
  
  
  *************************
  Highest Continuity Errors
  *************************
  Node YS02001884 (5.17%)
  Node YS02001583 (-5.01%)
  
  
  ***************************
  Time-Step Critical Elements
  ***************************
  Link WS02006252WS02006251 (49.05%)
  Link WS02006238WS02006235 (14.37%)
  Link WS02004404WS02004405 (8.11%)
  Link WS02003066WSF200 (7.68%)
  Link YS02001791YS02001793 (6.47%)
  
  
  ********************************
  Highest Flow Instability Indexes
  ********************************
  Link WS02006113WS02006111 (42)
  Link WS02006111WS02006112 (22)
  Link WS02004404WS02004405 (17)
  Link WS02006252WS02006251 (16)
  Link WS02006256WS02006235 (15)
  
  
  *********************************
  Most Frequent Nonconverging Nodes
  *********************************
  Node CC-1 (13.82%)
  Node CC-2 (13.82%)
  Node JK-1 (13.82%)
  Node JK-2 (13.82%)
  Node WSC (13.82%)
  
  
  *************************
  Routing Time Step Summary
  *************************
  Minimum Time Step           :     0.00 sec
  Average Time Step           :     1.70 sec
  Maximum Time Step           :     7.04 sec
  % of Time in Steady State   :     0.00
  Average Iterations per Step :     3.20
  % of Steps Not Converging   :    13.82
  Time Step Frequencies       :
     30.000 - 13.228 sec      :     0.00 %
     13.228 -  5.833 sec      :     2.94 %
      5.833 -  2.572 sec      :    18.93 %
      2.572 -  1.134 sec      :    23.60 %
      1.134 -  0.500 sec      :    54.53 %
  
  
  ***************************
  Subcatchment Runoff Summary
  ***************************
  
  ------------------------------------------------------------------------------------------------------------------------------
                            Total      Total      Total      Total     Imperv       Perv      Total       Total     Peak  Runoff
                           Precip      Runon       Evap      Infil     Runoff     Runoff     Runoff      Runoff   Runoff   Coeff
  Subcatchment                 mm         mm         mm         mm         mm         mm         mm    10^6 ltr      LPS
  ------------------------------------------------------------------------------------------------------------------------------
  sub60                     80.33       0.00       0.00       1.86      69.49       7.78      77.27        1.02   603.58   0.962
  sub61                     80.33       0.00       0.00       2.70      65.54      10.96      76.51        1.40   837.31   0.952
  sub62                     80.33       0.00       0.00       1.24      72.62       5.19      77.81        2.13  1181.97   0.969
  sub63                     80.33       0.00       0.00       4.96      56.07      18.34      74.41        1.69   937.30   0.926
  sub64                     80.33       0.00       0.00       2.51      67.07       9.54      76.62        1.84   969.17   0.954
  sub65                     80.33       0.00       0.00       2.17      68.63       8.27      76.91        2.12  1083.46   0.957
  sub66                     80.33       0.00       0.00       6.10      55.96      17.20      73.15        3.41  1436.39   0.911
  sub67                     80.33       0.00       0.00       1.19      72.66       5.23      77.90        1.45   902.01   0.970
  sub68                     80.33       0.00       0.00       2.23      67.90       9.02      76.91        2.12  1206.49   0.957
  sub69                     80.33       0.00       0.00       2.00      68.17      10.05      78.22        2.90  1442.15   0.974
  sub70                     80.33       0.00       0.00       6.60      52.85      20.71      73.56        2.13   809.71   0.916
  sub71                     80.33       0.00       0.00       1.27      72.58       5.16      77.73        2.03  1048.86   0.968
  sub72                     80.33       0.00       0.00       1.13      73.30       4.49      77.80        1.07   511.20   0.968
  
  
  ******************
  Node Depth Summary
  ******************
  
  ---------------------------------------------------------------------------------
                                 Average  Maximum  Maximum  Time of Max    Reported
                                   Depth    Depth      HGL   Occurrence   Max Depth
  Node                 Type       Meters   Meters   Meters  days hr:min      Meters
  ---------------------------------------------------------------------------------
  WS02003060           JUNCTION     0.23     0.38     5.32     0  02:11        0.38
  WS02003066           JUNCTION     0.19     0.30     5.85     0  02:08        0.30
  WS02003067           JUNCTION     0.50     0.70     6.02     0  02:10        0.70
  WS02003069           JUNCTION     0.26     0.43     5.01     0  02:12        0.43
  WS02003072           JUNCTION     0.32     0.50     4.87     0  02:13        0.50
  WS02003073           JUNCTION     0.18     0.30     4.36     0  02:14        0.30
  WS02004401           JUNCTION     0.59     0.87     6.87     0  02:20        0.87
  WS02004402           JUNCTION     0.62     0.90     6.86     0  02:21        0.90
  WS02004403           JUNCTION     0.64     0.92     6.85     0  02:21        0.92
  WS02004404           JUNCTION     0.72     1.02     6.87     0  02:21        1.00
  WS02004405           JUNCTION     0.71     0.97     6.82     0  02:21        0.96
  WS02004406           JUNCTION     0.72     0.96     6.79     0  02:21        0.96
  WS02004407           JUNCTION     0.17     0.30     6.61     0  02:06        0.30
  WS02004409           JUNCTION     0.38     0.67     6.44     0  02:06        0.67
  WS02004410           JUNCTION     0.41     0.68     6.40     0  02:07        0.68
  WS02004411           JUNCTION     0.43     0.69     6.37     0  02:07        0.69
  WS02004412           JUNCTION     0.45     0.70     6.34     0  02:07        0.70
  WS02004413           JUNCTION     0.61     0.86     6.33     0  02:07        0.86
  WS02006109           JUNCTION     0.64     1.32     7.94     0  02:39        1.32
  WS02006110           JUNCTION     0.64     1.18     7.76     0  02:32        1.12
  WS02006111           JUNCTION     0.17     0.29     6.99     0  02:45        0.29
  WS02006112           JUNCTION     0.74     1.13     7.01     0  02:33        1.07
  WS02006113           JUNCTION     0.26     0.46     7.35     0  03:06        0.46
  WS02006115           JUNCTION     0.47     0.77     6.91     0  02:15        0.77
  WS02006116           JUNCTION     0.56     0.85     6.89     0  02:15        0.85
  WS02006228           JUNCTION     0.63     1.30     7.96     0  02:39        1.30
  WS02006229           JUNCTION     0.60     1.26     7.96     0  03:19        1.26
  WS02006230           JUNCTION     0.59     1.46     8.21     0  02:16        1.27
  WS02006231           JUNCTION     0.41     1.26     8.38     0  02:15        1.17
  WS02006232           JUNCTION     0.55     1.39     8.43     0  03:19        1.39
  WS02006234           JUNCTION     0.47     1.53     8.68     0  02:00        1.36
  WS02006235           JUNCTION     0.51     1.50     8.66     0  02:10        1.42
  WS02006238           JUNCTION     0.54     1.54     8.68     0  02:10        1.47
  WS02006239           JUNCTION     0.51     1.54     8.75     0  02:20        1.50
  WS02006240           JUNCTION     0.47     1.52     8.82     0  02:20        1.47
  WS02006242           JUNCTION     0.54     1.55     8.82     0  02:20        1.55
  WS02006243           JUNCTION     0.45     1.43     8.85     0  02:20        1.39
  WS02006245           JUNCTION     0.46     1.35     8.84     0  02:20        1.32
  WS02006247           JUNCTION     0.48     1.47     8.97     0  02:36        1.47
  WS02006248           JUNCTION     0.45     1.10     8.69     0  02:00        1.10
  WS02006249           JUNCTION     0.48     1.09     8.69     0  01:50        1.09
  WS02006251           JUNCTION     0.48     1.34     9.01     0  01:50        1.23
  WS02006252           JUNCTION     0.36     1.50     9.74     0  00:00        0.79
  WS02006256           JUNCTION     0.99     2.35     9.28     0  00:00        2.35
  WSF200               JUNCTION     0.17     0.29     5.52     0  02:10        0.29
  YS02001580           JUNCTION     0.10     1.05     9.59     0  01:42        0.85
  YS02001583           JUNCTION     0.13     1.14     9.64     0  01:41        1.14
  YS02001586           JUNCTION     0.20     1.13     9.30     0  01:42        1.13
  YS02001590           JUNCTION     0.29     1.40     9.26     0  01:42        1.40
  YS02001593           JUNCTION     0.23     1.42     9.28     0  01:42        1.42
  YS02001596           JUNCTION     0.31     1.80     9.22     0  02:36        1.80
  YS02001600           JUNCTION     0.36     1.87     9.00     0  01:42        1.87
  YS02001601           JUNCTION     0.55     2.06     8.90     0  01:41        2.06
  YS02001602           JUNCTION     0.46     1.87     8.77     0  01:41        1.87
  YS02001605           JUNCTION     0.43     1.78     8.68     0  01:41        1.78
  YS02001607           JUNCTION     0.43     1.68     8.53     0  01:41        1.64
  YS02001610           JUNCTION     0.48     1.68     8.48     0  01:41        1.68
  YS02001613           JUNCTION     0.44     1.70     8.54     0  01:41        1.66
  YS02001616           JUNCTION     0.36     1.61     8.52     0  01:41        1.61
  YS02001619           JUNCTION     0.34     1.61     8.54     0  01:41        1.61
  YS02001622           JUNCTION     0.33     1.62     8.52     0  01:41        1.59
  YS02001625           JUNCTION     0.61     1.78     8.38     0  01:41        1.78
  YS02001629           JUNCTION     0.45     1.85     8.40     0  01:41        1.85
  YS02001633           JUNCTION     0.53     2.08     8.53     0  01:48        2.08
  YS02001641           JUNCTION     0.52     1.97     8.40     0  01:45        1.97
  YS02001644           JUNCTION     0.51     1.92     8.35     0  01:45        1.92
  YS02001647           JUNCTION     0.31     1.80     8.41     0  01:46        1.75
  YS02001649           JUNCTION     0.35     2.02     8.41     0  01:47        1.97
  YS02001652           JUNCTION     0.25     1.93     8.53     0  01:47        1.81
  YS02001655           JUNCTION     0.20     1.93     8.78     0  01:46        1.61
  YS02001658           JUNCTION     0.14     1.92     9.07     0  01:46        1.38
  YS02001661           JUNCTION     0.16     1.48     8.89     0  01:47        1.16
  YS02001664           JUNCTION     0.05     0.67     8.59     0  01:47        0.61
  YS02001745           JUNCTION     0.07     0.88     8.39     0  01:46        0.85
  YS02001748           JUNCTION     0.14     1.85     8.93     0  01:46        1.27
  YS02001751           JUNCTION     0.17     1.79     8.67     0  01:46        1.45
  YS02001754           JUNCTION     0.23     1.83     8.44     0  01:46        1.72
  YS02001757           JUNCTION     0.38     2.03     8.30     0  01:46        2.03
  YS02001759           JUNCTION     0.32     2.08     8.45     0  01:48        2.08
  YS02001762           JUNCTION     0.31     2.15     8.55     0  01:45        2.15
  YS02001765           JUNCTION     0.29     2.10     8.55     0  01:45        2.10
  YS02001767           JUNCTION     0.29     2.03     8.52     0  01:45        2.03
  YS02001770           JUNCTION     0.30     1.95     8.44     0  01:45        1.95
  YS02001774           JUNCTION     0.37     2.05     8.47     0  01:45        2.05
  YS02001779           JUNCTION     0.21     1.68     8.37     0  01:45        1.68
  YS02001783           JUNCTION     0.23     1.31     7.45     0  01:44        1.26
  YS02001784           JUNCTION     0.24     1.17     7.24     0  01:44        1.15
  YS02001786           JUNCTION     0.20     0.91     6.94     0  01:44        0.88
  YS02001788           JUNCTION     0.14     0.62     6.60     0  01:49        0.62
  YS02001790           JUNCTION     0.17     0.73     6.37     0  01:47        0.72
  YS02001791           JUNCTION     0.11     0.44     5.91     0  01:47        0.44
  YS02001793           JUNCTION     0.06     0.30     5.14     0  02:00        0.29
  YS02001882           JUNCTION     0.29     1.83     8.55     0  01:43        1.74
  YS02001884           JUNCTION     0.39     1.93     8.55     0  01:43        1.84
  YS02001887           JUNCTION     0.47     1.95     8.49     0  01:48        1.95
  YS02001890           JUNCTION     0.50     1.81     8.32     0  01:43        1.81
  YS02001895           JUNCTION     0.26     1.61     8.36     0  02:10        1.58
  YS02001898           JUNCTION     0.27     1.69     8.42     0  01:43        1.58
  YS02001901           JUNCTION     0.39     1.73     8.34     0  02:10        1.68
  YS02001904           JUNCTION     0.37     1.68     8.31     0  02:07        1.68
  YS02001907           JUNCTION     0.70     1.96     8.25     0  01:44        1.96
  YS02001910           JUNCTION     0.49     1.99     8.49     0  01:45        1.98
  YS02001915           JUNCTION     0.30     1.97     8.69     0  01:48        1.97
  YS02001918           JUNCTION     0.16     1.81     8.88     0  01:44        1.56
  YS02001920           JUNCTION     0.24     2.14     9.15     0  01:45        1.58
  YS02001923           JUNCTION     0.12     2.03     9.29     0  01:45        1.34
  YS02001926           JUNCTION     0.15     1.90     9.35     0  01:45        1.17
  YS02001929           JUNCTION     0.09     1.78     9.47     0  01:45        0.93
  YS02006553           JUNCTION     0.70     2.04     8.32     0  01:45        2.04
  YS02006556           JUNCTION     0.67     2.07     8.38     0  01:45        2.07
  YS02006558           JUNCTION     0.71     2.14     8.40     0  01:45        2.14
  YS02006561           JUNCTION     0.14     1.05     7.71     0  01:44        0.90
  YS02163301           JUNCTION     0.47     1.95     8.47     0  01:48        1.95
  YS02163601           JUNCTION     0.57     2.07     8.47     0  01:48        2.07
  YS02164001           JUNCTION     0.50     2.10     8.56     0  02:36        2.10
  CC-1                 OUTFALL      0.00     0.00     0.00     0  00:00        0.00
  CC-2                 OUTFALL      0.00     0.00     0.00     0  00:00        0.00
  JK-1                 OUTFALL      0.00     0.00     0.00     0  00:00        0.00
  JK-2                 OUTFALL      0.00     0.00     0.00     0  00:00        0.00
  WSC                  OUTFALL      0.18     0.30     0.97     0  02:15        0.30
  CC-storage           STORAGE      0.96     1.83     7.33     0  02:27        1.83
  JK-storage           STORAGE      3.08     4.24     5.04     0  01:49        4.19
  
  
  *******************
  Node Inflow Summary
  *******************
  
  -------------------------------------------------------------------------------------------------
                                  Maximum  Maximum                  Lateral       Total        Flow
                                  Lateral    Total  Time of Max      Inflow      Inflow     Balance
                                   Inflow   Inflow   Occurrence      Volume      Volume       Error
  Node                 Type           LPS      LPS  days hr:min    10^6 ltr    10^6 ltr     Percent
  -------------------------------------------------------------------------------------------------
  WS02003060           JUNCTION     16.53   551.49     0  02:10       0.476        6.25       0.087
  WS02003066           JUNCTION      0.00   534.05     0  02:08           0        5.77       0.044
  WS02003067           JUNCTION      0.00   533.95     0  02:08           0        5.78       0.102
  WS02003069           JUNCTION      0.32   551.26     0  02:11     0.00922        6.25       0.143
  WS02003072           JUNCTION      0.00   550.45     0  02:12           0        6.24       0.216
  WS02003073           JUNCTION      1.82   552.22     0  02:14      0.0524        6.28       0.203
  WS02004401           JUNCTION      0.00   541.46     0  02:22           0        5.92       0.219
  WS02004402           JUNCTION      0.00   541.64     0  02:23           0         5.9       0.218
  WS02004403           JUNCTION      0.00   540.76     0  02:23           0        5.89       0.207
  WS02004404           JUNCTION      0.16   550.21     0  02:20     0.00467        5.88       0.174
  WS02004405           JUNCTION      0.04   605.81     0  02:21      0.0011        5.87       0.185
  WS02004406           JUNCTION      0.00   541.39     0  02:21           0        5.86       0.413
  WS02004407           JUNCTION      0.00   537.03     0  02:21           0        5.84       0.050
  WS02004409           JUNCTION      0.00   536.58     0  02:06           0        5.84       0.115
  WS02004410           JUNCTION      0.00   535.59     0  02:06           0        5.83       0.150
  WS02004411           JUNCTION      0.00   535.17     0  02:07           0        5.82       0.169
  WS02004412           JUNCTION      0.00   534.76     0  02:07           0        5.81       0.203
  WS02004413           JUNCTION      0.00   534.26     0  02:07           0         5.8       0.331
  WS02006109           JUNCTION      1.23   567.92     0  03:19      0.0354        5.98       0.130
  WS02006110           JUNCTION      0.00   570.15     0  03:19           0        5.97       0.152
  WS02006111           JUNCTION      0.00   561.44     0  03:06           0        5.96       0.026
  WS02006112           JUNCTION      0.00   543.32     0  03:08           0        5.95       0.331
  WS02006113           JUNCTION      0.00   575.48     0  03:19           0        5.96       0.049
  WS02006115           JUNCTION      0.00   554.41     0  03:31           0        5.93       0.162
  WS02006116           JUNCTION      0.00   540.24     0  03:13           0        5.93       0.145
  WS02006228           JUNCTION      0.00   563.01     0  03:19           0        5.94       0.060
  WS02006229           JUNCTION      0.00   562.76     0  03:19           0        5.95       0.135
  WS02006230           JUNCTION     10.28   590.19     0  02:42       0.296        5.95       0.054
  WS02006231           JUNCTION      0.00   576.59     0  03:11           0        5.66      -0.040
  WS02006232           JUNCTION      0.00   575.87     0  03:11           0        5.67       0.271
  WS02006234           JUNCTION      0.00   571.44     0  03:11           0        5.66      -0.218
  WS02006235           JUNCTION      0.00   565.36     0  03:11           0        5.74       0.233
  WS02006238           JUNCTION      0.00   426.27     0  02:55           0        4.69      -0.242
  WS02006239           JUNCTION      0.00   423.98     0  02:55           0        4.64      -0.275
  WS02006240           JUNCTION      0.00   421.32     0  02:45           0         4.6      -0.048
  WS02006242           JUNCTION      0.00   421.01     0  02:40           0        4.58       0.062
  WS02006243           JUNCTION      0.00   420.78     0  02:40           0        4.57      -0.080
  WS02006245           JUNCTION      0.00   420.39     0  02:45           0        4.59       0.428
  WS02006247           JUNCTION      0.00   420.41     0  02:55           0        4.59       0.033
  WS02006248           JUNCTION      0.00   421.09     0  02:55           0        4.59       0.113
  WS02006249           JUNCTION      0.00   459.02     0  00:00           0        4.88       0.384
  WS02006251           JUNCTION      0.08   405.99     0  01:50     0.00222        4.88      -0.035
  WS02006252           JUNCTION      0.00   400.00     0  00:00           0        4.87      -0.060
  WS02006256           JUNCTION      0.00   300.00     0  00:00           0        1.57      -0.842
  WSF200               JUNCTION      0.00   534.11     0  02:08           0        5.77       0.028
  YS02001580           JUNCTION      0.00   136.61     0  01:42           0     0.00467       0.960
  YS02001583           JUNCTION      0.00   175.75     0  01:41           0      0.0157      -4.770
  YS02001586           JUNCTION    809.71   809.71     0  01:53        2.13        2.14       0.061
  YS02001590           JUNCTION      0.00   318.24     0  02:07           0        1.57      -0.017
  YS02001593           JUNCTION      0.00   318.12     0  02:15           0        1.57       0.003
  YS02001596           JUNCTION      0.00   318.04     0  02:18           0        1.57       0.000
  YS02001600           JUNCTION      0.00   318.57     0  02:10           0        1.57       0.012
  YS02001601           JUNCTION   1442.15  1759.99     0  01:51         2.9        4.47       0.016
  YS02001602           JUNCTION      0.00   524.94     0  01:41           0        2.58       0.020
  YS02001605           JUNCTION      0.00   524.66     0  01:41           0        2.41       0.030
  YS02001607           JUNCTION      0.00   524.49     0  01:41           0        2.41       0.080
  YS02001610           JUNCTION      0.00   805.80     0  01:53           0        2.78       0.089
  YS02001613           JUNCTION      0.00   542.33     0  01:41           0        2.15       0.084
  YS02001616           JUNCTION      0.00   541.28     0  01:41           0        2.15       0.024
  YS02001619           JUNCTION   1436.39  1436.39     0  01:53        3.41        5.19       0.004
  YS02001622           JUNCTION      0.00   973.55     0  01:52           0        4.82       0.001
  YS02001625           JUNCTION      0.00  1397.23     0  01:54           0        5.13       0.181
  YS02001629           JUNCTION      0.00   924.22     0  01:41           0        3.76       0.016
  YS02001633           JUNCTION   1083.66  1364.86     0  01:44        2.12        5.51       0.060
  YS02001641           JUNCTION      0.00  1364.24     0  01:43           0        5.15       0.056
  YS02001644           JUNCTION    969.21  1776.23     0  01:44        1.84        6.98       0.046
  YS02001647           JUNCTION      0.00  1776.55     0  01:44           0        6.27       0.006
  YS02001649           JUNCTION      0.00  2001.08     0  01:43           0        7.96       0.005
  YS02001652           JUNCTION      0.00   963.30     0  01:50           0         1.7      -0.051
  YS02001655           JUNCTION      0.15   963.56     0  01:50     0.00443         1.7      -0.110
  YS02001658           JUNCTION      0.00   963.29     0  01:50           0         1.7      -0.023
  YS02001661           JUNCTION      0.00   962.28     0  01:50           0         1.7       0.014
  YS02001664           JUNCTION    937.30   937.30     0  01:50        1.69        1.69      -0.011
  YS02001745           JUNCTION    603.58   603.58     0  01:50        1.02        1.02       0.165
  YS02001748           JUNCTION      0.04   617.33     0  01:50      0.0013        1.02      -0.277
  YS02001751           JUNCTION      0.01   617.96     0  01:50    0.000317        1.02       0.062
  YS02001754           JUNCTION      0.26   618.54     0  01:50     0.00749        1.04      -0.160
  YS02001757           JUNCTION      0.00  3314.14     0  01:47           0        12.2       0.024
  YS02001759           JUNCTION    837.35  1371.53     0  01:49        1.41        3.22      -0.014
  YS02001762           JUNCTION      0.00   742.54     0  01:46           0        1.81      -0.013
  YS02001765           JUNCTION      0.00   741.67     0  01:46           0        1.81      -0.001
  YS02001767           JUNCTION      0.54   744.65     0  01:46      0.0154        1.81       0.001
  YS02001770           JUNCTION   1182.12  1182.12     0  01:51        2.14        2.18       0.000
  YS02001774           JUNCTION      0.00   681.99     0  01:50           0       0.406       0.242
  YS02001779           JUNCTION      0.01   682.03     0  01:50    0.000144       0.359      -0.161
  YS02001783           JUNCTION      0.00  1167.40     0  01:48           0        4.79       0.005
  YS02001784           JUNCTION      1.06  1168.84     0  01:48      0.0305        4.82       0.010
  YS02001786           JUNCTION      0.06  1169.13     0  01:48     0.00162        4.82       0.015
  YS02001788           JUNCTION      0.07  1167.98     0  01:48     0.00204        4.82       0.006
  YS02001790           JUNCTION      0.15  1180.32     0  01:49     0.00446        4.82       0.019
  YS02001791           JUNCTION      0.00  1290.55     0  01:47           0        4.82      -0.024
  YS02001793           JUNCTION      0.00  1246.19     0  02:00           0        4.82       0.003
  YS02001882           JUNCTION      0.00    70.02     0  01:43           0      0.0129       4.762
  YS02001884           JUNCTION      0.00    72.18     0  01:43           0      0.0493       5.455
  YS02001887           JUNCTION    902.46   902.97     0  01:50        1.46         1.5       0.297
  YS02001890           JUNCTION      0.00   902.83     0  01:49           0        1.45       0.348
  YS02001895           JUNCTION      0.00   518.05     0  01:51           0         1.3       0.140
  YS02001898           JUNCTION      0.00   518.24     0  01:51           0        1.29      -0.008
  YS02001901           JUNCTION      0.00   517.87     0  01:55           0         1.3       0.262
  YS02001904           JUNCTION      0.00   517.90     0  01:53           0         1.3       0.202
  YS02001907           JUNCTION      0.00  2132.82     0  01:50           0        4.48       0.391
  YS02001910           JUNCTION      0.00  1566.85     0  01:51           0        3.18       0.223
  YS02001915           JUNCTION   1048.88  1566.68     0  01:51        2.03        3.23       0.050
  YS02001918           JUNCTION      0.00   520.55     0  01:52           0        1.22       0.008
  YS02001920           JUNCTION      2.87   520.27     0  01:52      0.0827        1.21       0.079
  YS02001923           JUNCTION      0.04   517.66     0  01:52     0.00109        1.11      -0.091
  YS02001926           JUNCTION      0.05   569.83     0  01:45      0.0015        1.09       0.019
  YS02001929           JUNCTION    511.20   511.20     0  01:52        1.07        1.07      -0.027
  YS02006553           JUNCTION      0.00   795.83     0  02:13           0        2.71       0.439
  YS02006556           JUNCTION      0.00   794.75     0  02:13           0        2.72       0.290
  YS02006558           JUNCTION   1207.37  1207.37     0  01:50        2.14        4.83       0.069
  YS02006561           JUNCTION      0.00  1177.18     0  01:44           0        4.79      -0.001
  YS02163301           JUNCTION      0.00   920.95     0  01:43           0        3.76       0.039
  YS02163601           JUNCTION      0.11  1364.69     0  01:44     0.00317        5.14       0.094
  YS02164001           JUNCTION      0.00  1364.53     0  01:44           0        5.14       0.040
  CC-1                 OUTFALL       0.00   683.00     0  00:00           0        4.38       0.000
  CC-2                 OUTFALL       0.00   683.00     0  00:00           0        3.58       0.000
  JK-1                 OUTFALL       0.00  1000.00     0  00:00           0        2.95       0.000
  JK-2                 OUTFALL       0.00  1000.00     0  00:00           0       0.286       0.000
  WSC                  OUTFALL       0.00   551.91     0  02:15           0        6.27       0.000
  CC-storage           STORAGE       0.00  3315.04     0  01:47           0        14.4      -0.166
  JK-storage           STORAGE       0.00  1243.94     0  01:55           0        4.97       0.056
  
  
  **********************
  Node Surcharge Summary
  **********************
  
  Surcharging occurs when water rises above the top of the highest conduit.
  ---------------------------------------------------------------------
                                               Max. Height   Min. Depth
                                   Hours       Above Crown    Below Rim
  Node                 Type      Surcharged         Meters       Meters
  ---------------------------------------------------------------------
  WS02004404           JUNCTION        0.01          0.018        2.762
  WS02006109           JUNCTION        2.19          0.502        1.318
  WS02006110           JUNCTION        0.83          0.269        1.581
  WS02006112           JUNCTION        1.21          0.127        1.553
  WS02006228           JUNCTION        2.18          0.475        1.725
  WS02006229           JUNCTION        2.21          0.462        1.988
  WS02006230           JUNCTION        0.86          0.380        1.190
  WS02006231           JUNCTION        1.07          0.547        0.983
  WS02006232           JUNCTION        2.26          0.693        0.787
  WS02006234           JUNCTION        1.49          0.805        0.435
  WS02006235           JUNCTION        2.15          0.786        0.504
  WS02006238           JUNCTION        2.22          0.821        0.609
  WS02006239           JUNCTION        2.16          0.798        0.492
  WS02006240           JUNCTION        2.18          0.813        0.577
  WS02006242           JUNCTION        2.21          0.820        0.000
  WS02006243           JUNCTION        2.18          0.723        0.047
  WS02006245           JUNCTION        2.17          0.640        0.210
  WS02006247           JUNCTION        2.17          0.760        0.000
  WS02006248           JUNCTION        2.17          0.380        0.000
  WS02006249           JUNCTION        2.17          0.390        0.000
  WS02006251           JUNCTION        1.17          0.306        0.874
  WS02006252           JUNCTION        2.60          1.100        0.000
  WS02006256           JUNCTION        6.83          2.050        0.000
  YS02001580           JUNCTION        0.81          0.450        0.000
  YS02001583           JUNCTION        0.82          0.500        0.000
  YS02001586           JUNCTION        1.00          0.510        0.000
  YS02001590           JUNCTION        1.10          0.750        0.000
  YS02001593           JUNCTION        1.10          0.799        0.041
  YS02001596           JUNCTION        1.24          1.070        0.000
  YS02001600           JUNCTION        1.43          1.190        0.000
  YS02001601           JUNCTION        1.69          1.440        0.000
  YS02001602           JUNCTION        1.61          1.270        0.000
  YS02001605           JUNCTION        1.57          1.180        0.000
  YS02001607           JUNCTION        1.11          0.680        0.000
  YS02001610           JUNCTION        1.15          0.680        0.000
  YS02001613           JUNCTION        1.11          0.700        0.000
  YS02001616           JUNCTION        1.06          0.610        0.000
  YS02001619           JUNCTION        1.05          0.610        0.000
  YS02001622           JUNCTION        1.05          0.620        0.000
  YS02001625           JUNCTION        1.26          0.780        0.000
  YS02001629           JUNCTION        0.99          0.470        0.000
  YS02001633           JUNCTION        1.30          1.060        0.000
  YS02001641           JUNCTION        1.26          0.967        0.133
  YS02001644           JUNCTION        1.23          0.920        0.000
  YS02001647           JUNCTION        1.00          0.797        0.103
  YS02001649           JUNCTION        1.16          1.019        0.031
  YS02001652           JUNCTION        0.92          0.902        0.228
  YS02001655           JUNCTION        0.69          0.930        0.270
  YS02001658           JUNCTION        0.35          0.924        0.376
  YS02001661           JUNCTION        0.09          0.414        0.976
  YS02001748           JUNCTION        0.26          0.772        0.418
  YS02001751           JUNCTION        0.52          0.788        0.412
  YS02001754           JUNCTION        0.82          0.778        0.372
  YS02001757           JUNCTION        1.25          1.034        0.176
  YS02001759           JUNCTION        1.13          1.083        0.127
  YS02001762           JUNCTION        1.10          1.150        0.000
  YS02001765           JUNCTION        1.05          1.100        0.000
  YS02001767           JUNCTION        1.01          1.030        0.000
  YS02001770           JUNCTION        0.96          0.920        0.000
  YS02001774           JUNCTION        1.08          1.050        0.000
  YS02001779           JUNCTION        0.80          0.680        0.000
  YS02001783           JUNCTION        0.69          0.509        1.091
  YS02001784           JUNCTION        0.66          0.371        1.119
  YS02001786           JUNCTION        0.54          0.109        1.321
  YS02001882           JUNCTION        0.62          0.830        0.000
  YS02001884           JUNCTION        0.64          0.870        0.000
  YS02001887           JUNCTION        0.68          0.905        0.045
  YS02001890           JUNCTION        0.70          0.760        0.000
  YS02001895           JUNCTION        0.61          0.612        0.138
  YS02001898           JUNCTION        0.61          0.660        0.080
  YS02001901           JUNCTION        0.66          0.728        0.142
  YS02001904           JUNCTION        0.65          0.685        0.165
  YS02001907           JUNCTION        0.94          0.950        0.000
  YS02001910           JUNCTION        0.73          0.985        0.115
  YS02001915           JUNCTION        0.62          0.973        0.027
  YS02001918           JUNCTION        0.53          0.810        0.000
  YS02001920           JUNCTION        0.54          1.140        0.000
  YS02001923           JUNCTION        0.17          0.820        0.000
  YS02001926           JUNCTION        0.20          0.900        0.000
  YS02001929           JUNCTION        0.01          0.780        0.000
  YS02006553           JUNCTION        0.96          1.040        0.150
  YS02006556           JUNCTION        0.83          1.032        0.318
  YS02006558           JUNCTION        0.82          1.035        0.365
  YS02006561           JUNCTION        0.49          0.248        0.902
  YS02163301           JUNCTION        1.28          0.949        0.081
  YS02163601           JUNCTION        1.34          1.071        0.009
  YS02164001           JUNCTION        1.25          1.100        0.000
  
  
  *********************
  Node Flooding Summary
  *********************
  
  Flooding refers to all water that overflows a node, whether it ponds or not.
  --------------------------------------------------------------------------
                                                             Total   Maximum
                                 Maximum   Time of Max       Flood    Ponded
                        Hours       Rate    Occurrence      Volume     Depth
  Node                 Flooded       LPS   days hr:min    10^6 ltr    Meters
  --------------------------------------------------------------------------
  WS02006242              0.01      3.47      0  02:20       0.000     0.000
  WS02006247              0.01      0.60      0  02:36       0.000     0.000
  WS02006248              0.02     21.39      0  02:15       0.001     0.000
  WS02006249              1.12     93.38      0  03:19       0.264     0.000
  WS02006252              0.01    245.63      0  00:00       0.000     0.000
  WS02006256              1.45    293.19      0  00:00       0.506     0.000
  YS02001580              0.01    118.34      0  01:42       0.000     0.000
  YS02001583              0.01    110.57      0  01:41       0.000     0.000
  YS02001586              0.65    492.29      0  01:53       0.552     0.000
  YS02001590              0.01      1.06      0  01:42       0.000     0.000
  YS02001596              0.01      0.32      0  02:36       0.000     0.000
  YS02001600              0.01      4.00      0  02:36       0.000     0.000
  YS02001601              0.92   1362.18      0  01:51       1.889     0.000
  YS02001602              0.83     62.40      0  02:07       0.166     0.000
  YS02001605              0.01      3.41      0  01:41       0.000     0.000
  YS02001607              0.01     31.00      0  01:41       0.000     0.000
  YS02001610              0.72    805.46      0  01:53       0.996     0.000
  YS02001613              0.01      4.68      0  01:41       0.000     0.000
  YS02001616              0.01     33.88      0  01:41       0.000     0.000
  YS02001619              0.01     26.63      0  01:41       0.000     0.000
  YS02001622              0.01     86.13      0  01:41       0.000     0.000
  YS02001625              0.70   1397.20      0  01:54       1.718     0.000
  YS02001629              0.15    231.70      0  01:49       0.069     0.000
  YS02001633              0.01      0.27      0  01:48       0.000     0.000
  YS02001644              0.28   1243.12      0  01:50       0.705     0.000
  YS02001762              0.01     13.23      0  01:45       0.000     0.000
  YS02001765              0.01     23.07      0  01:45       0.000     0.000
  YS02001767              0.01     16.26      0  01:45       0.000     0.000
  YS02001770              0.01     26.80      0  01:45       0.000     0.000
  YS02001774              0.01     11.13      0  01:45       0.000     0.000
  YS02001779              0.25    682.01      0  01:50       0.338     0.000
  YS02001882              0.01     14.91      0  01:43       0.000     0.000
  YS02001884              0.01     13.96      0  01:43       0.000     0.000
  YS02001890              0.22    385.86      0  01:50       0.154     0.000
  YS02001907              0.46   2132.57      0  01:51       1.777     0.000
  YS02001918              0.01    238.37      0  01:45       0.003     0.000
  YS02001920              0.01     35.24      0  01:45       0.000     0.000
  YS02001923              0.01    289.86      0  01:45       0.001     0.000
  YS02001926              0.01    129.11      0  01:45       0.001     0.000
  YS02001929              0.01    109.53      0  01:45       0.000     0.000
  YS02164001              0.01      9.50      0  02:36       0.000     0.000
  
  
  **********************
  Storage Volume Summary
  **********************
  
  ------------------------------------------------------------------------------------------------
                         Average    Avg   Evap  Exfil     Maximum    Max    Time of Max    Maximum
                          Volume   Pcnt   Pcnt   Pcnt      Volume   Pcnt     Occurrence    Outflow
  Storage Unit           1000 m³   Full   Loss   Loss     1000 m³   Full    days hr:min        LPS
  ------------------------------------------------------------------------------------------------
  CC-storage               2.665   41.6    0.0    0.0       5.107   79.7       0  02:27    1783.53
  JK-storage               0.155   53.1    0.0    0.0       0.213   73.1       0  01:49    2300.00
  
  
  ***********************
  Outfall Loading Summary
  ***********************
  
  -----------------------------------------------------------
                         Flow       Avg       Max       Total
                         Freq      Flow      Flow      Volume
  Outfall Node           Pcnt       LPS       LPS    10^6 ltr
  -----------------------------------------------------------
  CC-1                  22.54    683.00    683.00       4.376
  CC-2                  17.47    683.00    683.00       3.583
  JK-1                  11.16   1000.00   1000.00       2.948
  JK-2                   0.87   1000.00   1000.00       0.286
  WSC                   99.96    247.32    551.91       6.267
  -----------------------------------------------------------
  System                30.40   3613.32   3505.19      17.460
  
  
  ********************
  Link Flow Summary
  ********************
  
  -----------------------------------------------------------------------------
                                 Maximum  Time of Max   Maximum    Max/    Max/
                                  |Flow|   Occurrence   |Veloc|    Full    Full
  Link                 Type          LPS  days hr:min     m/sec    Flow   Depth
  -----------------------------------------------------------------------------
  1                    CONDUIT    551.91     0  02:15      2.82    0.19    0.30
  WS02003060WS02003069 CONDUIT    550.94     0  02:11      1.64    0.22    0.34
  WS02003066WSF200     CONDUIT    534.11     0  02:08      2.85    0.09    0.22
  WS02003067WS02003066 CONDUIT    534.05     0  02:08      1.20    0.17    0.41
  WS02003069WS02003072 CONDUIT    550.45     0  02:12      1.37    0.27    0.39
  WS02003072WS02003073 CONDUIT    550.40     0  02:14      1.43    1.19    0.37
  WS02004401WS02004402 CONDUIT    541.64     0  02:23      0.98    0.65    0.89
  WS02004402WS02004403 CONDUIT    540.76     0  02:23      0.97    0.78    0.91
  WS02004403WS02004404 CONDUIT    550.05     0  02:20      0.92    0.40    0.96
  WS02004404WS02004405 CONDUIT    605.77     0  02:21      1.08    5.93    0.97
  WS02004405WS02004406 CONDUIT    541.39     0  02:21      0.99    1.07    0.96
  WS02004406WS02004407 CONDUIT    537.03     0  02:21      1.04    0.24    0.63
  WS02004407WS02004409 CONDUIT    536.58     0  02:06      1.54    0.19    0.48
  WS02004409WS02004410 CONDUIT    535.59     0  02:06      1.00    0.69    0.67
  WS02004410WS02004411 CONDUIT    535.17     0  02:07      0.94    0.73    0.68
  WS02004411WS02004412 CONDUIT    534.76     0  02:07      0.92    0.76    0.69
  WS02004412WS02004413 CONDUIT    534.26     0  02:07      0.82    0.36    0.78
  WS02004413WS02003067 CONDUIT    533.95     0  02:08      1.11    0.23    0.59
  WS02006109WS02006110 CONDUIT    570.15     0  03:19      1.13    1.10    1.00
  WS02006110WS02006113 CONDUIT    575.48     0  03:19      1.39    0.52    0.79
  WS02006111WS02006112 CONDUIT    543.32     0  03:08      1.81    0.26    0.67
  WS02006112WS02006115 CONDUIT    554.41     0  03:31      0.82    0.33    0.88
  WS02006113WS02006111 CONDUIT    561.44     0  03:06      2.47    0.67    0.46
  WS02006115WS02006116 CONDUIT    540.24     0  03:13      0.99    0.69    0.78
  WS02006116WS02004401 CONDUIT    541.46     0  02:22      0.98    0.75    0.86
  WS02006228WS02006109 CONDUIT    566.69     0  03:19      1.13    2.48    1.00
  WS02006229WS02006228 CONDUIT    563.01     0  03:19      1.14    1.86    1.00
  WS02006230WS02006229 CONDUIT    562.76     0  03:19      1.46   12.52    1.00
  WS02006231WS02006230 CONDUIT    579.91     0  02:42      1.57    8.80    1.00
  WS02006232WS02006231 CONDUIT    576.59     0  03:11      1.50    1.21    1.00
  WS02006234WS02006232 CONDUIT    575.87     0  03:11      1.50    1.16    1.00
  WS02006235WS02006234 CONDUIT    571.44     0  03:11      1.48    6.03    1.00
  WS02006238WS02006235 CONDUIT    426.07     0  02:55      1.50    0.95    1.00
  WS02006239WS02006238 CONDUIT    426.27     0  02:55      1.18    1.36    1.00
  WS02006240WS02006239 CONDUIT    423.98     0  02:55      1.30    1.33    1.00
  WS02006242WS02006240 CONDUIT    421.32     0  02:45      1.18    1.67    1.00
  WS02006243WS02006242 CONDUIT    421.01     0  02:40      1.43    0.90    1.00
  WS02006245WS02006243 CONDUIT    420.78     0  02:40      1.45    1.24    1.00
  WS02006247WS02006245 CONDUIT    420.39     0  02:45      1.43    3.33    1.00
  WS02006248WS02006247 CONDUIT    420.41     0  02:55      1.44    0.92    1.00
  WS02006249WS02006248 CONDUIT    421.09     0  02:55      1.38    2.31    1.00
  WS02006251WS02006249 CONDUIT    459.02     0  00:00      1.99    1.32    1.00
  WS02006252WS02006251 CONDUIT    405.91     0  01:50     25.83    1.49    1.00
  WS02006256WS02006235 CONDUIT    288.91     0  00:00      4.23    3.06    1.00
  WSF200WS02003060     CONDUIT    534.96     0  02:10      2.06    0.12    0.28
  YS02001580YS02001583 CONDUIT    136.61     0  01:42      0.70    0.53    1.00
  YS02001583YS02001586 CONDUIT    162.07     0  01:41      0.70    0.25    1.00
  YS02001586YS02001590 CONDUIT    318.24     0  02:07      1.25    0.56    1.00
  YS02001590YS02001593 CONDUIT    318.12     0  02:15      1.13    2.00    1.00
  YS02001593YS02001596 CONDUIT    318.04     0  02:18      1.71    0.50    1.00
  YS02001596YS02001600 CONDUIT    318.57     0  02:10      1.24    0.62    1.00
  YS02001600YS02001601 CONDUIT    318.36     0  02:10      1.13    0.55    1.00
  YS02001601YS02001602 CONDUIT    524.94     0  01:41      1.86    1.90    1.00
  YS02001602YS02001605 CONDUIT    524.66     0  01:41      1.86   11.10    1.00
  YS02001605YS02001607 CONDUIT    524.49     0  01:41      1.85    2.88    1.00
  YS02001607YS02001610 CONDUIT    536.10     0  01:41      0.68    0.51    1.00
  YS02001610YS02001613 CONDUIT    542.33     0  01:41      0.69    0.63    1.00
  YS02001613YS02001616 CONDUIT    541.28     0  01:41      0.70    0.46    1.00
  YS02001616YS02001619 CONDUIT    496.82     0  01:41      0.68    0.86    1.00
  YS02001619YS02001622 CONDUIT    973.55     0  01:52      1.24    1.43    1.00
  YS02001622YS02001625 CONDUIT    974.44     0  01:51      1.24    0.52    1.00
  YS02001625YS02001629 CONDUIT    924.22     0  01:41      1.19    0.44    1.00
  YS02001629YS02163301 CONDUIT    920.95     0  01:43      1.17    1.13    1.00
  YS02001633YS02163601 CONDUIT   1364.58     0  01:44      1.74    1.43    1.00
  YS02001641YS02001644 CONDUIT   1364.24     0  01:44      1.74    4.41    1.00
  YS02001644YS02001647 CONDUIT   1776.55     0  01:44      2.27    1.04    1.00
  YS02001647YS02001649 CONDUIT   1786.50     0  01:44      2.32    0.94    1.00
  YS02001649YS02001757 CONDUIT   1990.85     0  01:44      2.53    1.21    1.00
  YS02001652YS02001649 CONDUIT    964.34     0  01:50      1.23    0.48    1.00
  YS02001655YS02001652 CONDUIT    963.30     0  01:50      1.40    0.47    1.00
  YS02001658YS02001655 CONDUIT    963.41     0  01:50      1.90    0.41    1.00
  YS02001661YS02001658 CONDUIT    963.29     0  01:50      2.32    0.38    1.00
  YS02001664YS02001661 CONDUIT    962.28     0  01:50      2.32    0.30    0.83
  YS02001745YS02001748 CONDUIT    617.29     0  01:50      2.20    0.24    0.94
  YS02001748YS02001751 CONDUIT    617.95     0  01:50      1.71    0.31    1.00
  YS02001751YS02001754 CONDUIT    618.28     0  01:50      1.46    0.30    1.00
  YS02001754YS02001757 CONDUIT    618.45     0  01:50      0.79    0.25    1.00
  YS02001757CaochengTiaoxuchi CONDUIT   3315.04     0  01:47      4.22    1.43    1.00
  YS02001759YS02001757 CONDUIT   1371.35     0  01:49      1.75    0.97    1.00
  YS02001762YS02001759 CONDUIT    742.16     0  01:46      0.94    0.86    1.00
  YS02001765YS02001762 CONDUIT    742.54     0  01:46      0.95    0.70    1.00
  YS02001767YS02001765 CONDUIT    741.67     0  01:46      0.94    0.93    1.00
  YS02001770YS02001767 CONDUIT    744.11     0  01:46      0.95    2.95    1.00
  YS02001774YS02001770 CONDUIT    681.99     0  01:50      0.87    0.44    1.00
  YS02001779YS02001774 CONDUIT    682.02     0  01:50      0.87    0.34    1.00
  YS02001783YS02001784 CONDUIT   1167.78     0  01:48      2.32    1.61    1.00
  YS02001784YS02001785 CONDUIT   1169.08     0  01:48      2.33    2.72    1.00
  YS02001786YS02001788 CONDUIT   1167.91     0  01:48      2.49    2.25    0.89
  YS02001788YS02001790 CONDUIT   1180.17     0  01:49      2.72    0.87    0.84
  YS02001790YS02001791 CONDUIT   1290.55     0  01:47      3.43    1.40    0.70
  YS02001791YS02001793 CONDUIT   1246.19     0  02:00      6.78    0.54    0.45
  YS02001793JiankangQianchi CONDUIT   1243.94     0  01:55      2.50    0.10    0.65
  YS02001882YS02001884 CONDUIT     70.02     0  01:43      0.16    0.08    1.00
  YS02001884YS02001887 CONDUIT     72.18     0  01:43      0.12    0.10    1.00
  YS02001887YS02001890 CONDUIT    902.83     0  01:49      1.15    1.55    1.00
  YS02001890YS02001895 CONDUIT    518.05     0  01:51      0.66    0.24    1.00
  YS02001895YS02001898 CONDUIT    518.24     0  01:51      0.66    0.90    1.00
  YS02001898YS02001901 CONDUIT    517.87     0  01:55      0.66    0.33    1.00
  YS02001901YS02001904 CONDUIT    517.90     0  01:53      0.66    0.80    1.00
  YS02001904YS02001907 CONDUIT    519.73     0  01:53      0.66    0.18    1.00
  YS02001907YS02006553 CONDUIT    795.83     0  02:13      0.88    0.94    1.00
  YS02001910YS02001907 CONDUIT   1567.64     0  01:51      2.00    0.88    1.00
  YS02001915YS02001910 CONDUIT   1566.85     0  01:51      1.99    0.78    1.00
  YS02001918YS02001915 CONDUIT    520.40     0  01:52      0.66    0.29    1.00
  YS02001920YS02001918 CONDUIT    520.55     0  01:52      0.66    0.50    1.00
  YS02001923YS02001920 CONDUIT    517.40     0  01:52      0.70    0.23    1.00
  YS02001926YS02001923 CONDUIT    517.63     0  01:52      0.96    0.74    1.00
  YS02001929YS02001926 CONDUIT    516.15     0  01:52      1.13    0.25    1.00
  YS02006553YS02006556 CONDUIT    794.75     0  02:13      1.01    0.68    1.00
  YS02006556YS02006558 CONDUIT    795.12     0  02:13      1.01    0.63    1.00
  YS02006558YS02006561 CONDUIT   1177.18     0  01:44      4.16    2.60    1.00
  YS02006561YS02001783 CONDUIT   1167.40     0  01:48      2.32    0.60    1.00
  YS02163301YS02001633 CONDUIT    921.31     0  01:43      1.17    0.87    1.00
  YS02163601YS02164001 CONDUIT   1364.53     0  01:44      1.74    1.21    1.00
  YS02164001YS02001641 CONDUIT   1364.24     0  01:43      1.74    1.86    1.00
  CC-R1                PUMP       683.00     0  00:00              1.00
  CC-R2                PUMP       683.00     0  00:00              1.00
  CC-S1                PUMP       200.00     0  00:00              1.00
  CC-S2                PUMP       200.00     0  00:00              1.00
  JK-R1                PUMP      1000.00     0  00:00              1.00
  JK-R2                PUMP      1000.00     0  00:00              1.00
  JK-S                 PUMP       300.00     0  00:00              1.00
  
  
  ***************************
  Flow Classification Summary
  ***************************
  
  -------------------------------------------------------------------------------------
                      Adjusted    ---------- Fraction of Time in Flow Class ---------- 
                       /Actual         Up    Down  Sub   Sup   Up    Down  Norm  Inlet 
  Conduit               Length    Dry  Dry   Dry   Crit  Crit  Crit  Crit  Ltd   Ctrl  
  -------------------------------------------------------------------------------------
  1                       1.00   0.00  0.00  0.00  0.00  1.00  0.00  0.00  0.42  0.00
  WS02003060WS02003069    1.00   0.00  0.00  0.00  0.96  0.04  0.00  0.00  0.60  0.00
  WS02003066WSF200        1.00   0.13  0.00  0.00  0.00  0.87  0.00  0.00  0.74  0.00
  WS02003067WS02003066    1.00   0.10  0.02  0.00  0.88  0.00  0.00  0.00  0.00  0.00
  WS02003069WS02003072    1.00   0.00  0.00  0.00  0.99  0.01  0.00  0.00  0.69  0.00
  WS02003072WS02003073    1.00   0.00  0.00  0.00  0.00  0.00  0.00  1.00  0.00  0.00
  WS02004401WS02004402    1.00   0.02  0.00  0.00  0.98  0.00  0.00  0.00  0.00  0.00
  WS02004402WS02004403    1.00   0.02  0.00  0.00  0.97  0.00  0.00  0.00  0.00  0.00
  WS02004403WS02004404    1.00   0.00  0.03  0.00  0.97  0.00  0.00  0.00  0.00  0.00
  WS02004404WS02004405    1.00   0.00  0.00  0.00  1.00  0.00  0.00  0.00  0.01  0.00
  WS02004405WS02004406    1.00   0.00  0.00  0.00  1.00  0.00  0.00  0.00  0.00  0.00
  WS02004406WS02004407    1.00   0.00  0.05  0.00  0.95  0.00  0.00  0.00  0.00  0.00
  WS02004407WS02004409    1.00   0.05  0.00  0.00  0.94  0.01  0.00  0.00  0.94  0.00
  WS02004409WS02004410    1.00   0.05  0.00  0.00  0.95  0.00  0.00  0.00  0.03  0.00
  WS02004410WS02004411    1.00   0.05  0.00  0.00  0.95  0.00  0.00  0.00  0.01  0.00
  WS02004411WS02004412    1.00   0.05  0.00  0.00  0.95  0.00  0.00  0.00  0.00  0.00
  WS02004412WS02004413    1.00   0.05  0.00  0.00  0.94  0.00  0.00  0.00  0.01  0.00
  WS02004413WS02003067    1.00   0.06  0.04  0.00  0.00  0.00  0.90  0.00  0.00  0.00
  WS02006109WS02006110    1.00   0.00  0.01  0.00  0.98  0.00  0.01  0.00  0.00  0.00
  WS02006110WS02006113    1.00   0.01  0.01  0.00  0.98  0.00  0.00  0.00  0.00  0.00
  WS02006111WS02006112    1.00   0.02  0.00  0.00  0.98  0.00  0.00  0.00  0.98  0.00
  WS02006112WS02006115    1.00   0.02  0.00  0.00  0.97  0.00  0.00  0.00  0.00  0.00
  WS02006113WS02006111    1.00   0.02  0.00  0.00  0.00  0.98  0.00  0.00  0.19  0.00
  WS02006115WS02006116    1.00   0.02  0.00  0.00  0.97  0.00  0.00  0.01  0.00  0.00
  WS02006116WS02004401    1.00   0.02  0.00  0.00  0.98  0.00  0.00  0.00  0.00  0.00
  WS02006228WS02006109    1.00   0.00  0.00  0.00  1.00  0.00  0.00  0.00  0.00  0.00
  WS02006229WS02006228    1.00   0.00  0.00  0.00  0.99  0.00  0.00  0.01  0.00  0.00
  WS02006230WS02006229    1.00   0.00  0.00  0.00  0.99  0.00  0.00  0.01  0.00  0.00
  WS02006231WS02006230    1.00   0.00  0.00  0.00  0.30  0.00  0.69  0.00  0.00  0.00
  WS02006232WS02006231    1.00   0.00  0.00  0.00  0.98  0.00  0.02  0.00  0.00  0.00
  WS02006234WS02006232    1.00   0.00  0.00  0.00  1.00  0.00  0.00  0.00  0.06  0.00
  WS02006235WS02006234    1.00   0.00  0.00  0.00  0.91  0.00  0.09  0.00  0.00  0.00
  WS02006238WS02006235    1.00   0.00  0.00  0.00  1.00  0.00  0.00  0.00  0.00  0.00
  WS02006239WS02006238    1.00   0.00  0.00  0.00  1.00  0.00  0.00  0.00  0.14  0.00
  WS02006240WS02006239    1.00   0.00  0.00  0.00  0.78  0.00  0.00  0.21  0.05  0.00
  WS02006242WS02006240    1.00   0.00  0.00  0.00  0.98  0.00  0.02  0.00  0.00  0.00
  WS02006243WS02006242    1.00   0.00  0.00  0.00  0.98  0.00  0.00  0.02  0.40  0.00
  WS02006245WS02006243    1.00   0.00  0.00  0.00  0.88  0.00  0.00  0.12  0.01  0.00
  WS02006247WS02006245    1.00   0.00  0.00  0.00  0.98  0.00  0.00  0.02  0.00  0.00
  WS02006248WS02006247    1.00   0.00  0.00  0.00  0.98  0.00  0.00  0.02  0.34  0.00
  WS02006249WS02006248    1.00   0.00  0.00  0.00  0.59  0.00  0.41  0.00  0.00  0.00
  WS02006251WS02006249    1.00   0.00  0.00  0.00  0.99  0.01  0.00  0.00  0.43  0.00
  WS02006252WS02006251    1.00   0.07  0.40  0.00  0.15  0.00  0.38  0.00  0.00  0.00
  WS02006256WS02006235    1.00   0.00  0.00  0.00  0.99  0.01  0.00  0.00  0.00  0.00
  WSF200WS02003060        1.00   0.00  0.13  0.00  0.12  0.75  0.00  0.00  0.45  0.00
  YS02001580YS02001583    1.00   0.21  0.56  0.00  0.23  0.00  0.00  0.00  0.66  0.00
  YS02001583YS02001586    1.00   0.41  0.31  0.00  0.28  0.00  0.00  0.00  0.66  0.00
  YS02001586YS02001590    1.00   0.13  0.00  0.00  0.44  0.04  0.00  0.39  0.34  0.00
  YS02001590YS02001593    1.00   0.13  0.01  0.00  0.16  0.00  0.71  0.00  0.00  0.00
  YS02001593YS02001596    1.00   0.13  0.00  0.00  0.18  0.01  0.00  0.68  0.02  0.00
  YS02001596YS02001600    1.00   0.13  0.00  0.00  0.23  0.01  0.00  0.63  0.04  0.00
  YS02001600YS02001601    1.00   0.13  0.01  0.00  0.86  0.00  0.00  0.00  0.59  0.00
  YS02001601YS02001602    1.00   0.13  0.01  0.00  0.87  0.00  0.00  0.00  0.00  0.00
  YS02001602YS02001605    1.00   0.13  0.00  0.00  0.87  0.00  0.00  0.00  0.00  0.00
  YS02001605YS02001607    1.00   0.13  0.00  0.00  0.87  0.00  0.00  0.00  0.00  0.00
  YS02001607YS02001610    1.00   0.13  0.01  0.00  0.86  0.00  0.00  0.00  0.01  0.00
  YS02001610YS02001613    1.00   0.13  0.00  0.00  0.87  0.00  0.00  0.00  0.00  0.00
  YS02001613YS02001616    1.00   0.13  0.00  0.00  0.87  0.00  0.00  0.00  0.00  0.00
  YS02001616YS02001619    1.00   0.13  0.00  0.00  0.87  0.00  0.00  0.00  0.00  0.00
  YS02001619YS02001622    1.00   0.13  0.00  0.00  0.87  0.00  0.00  0.00  0.28  0.00
  YS02001622YS02001625    1.00   0.13  0.00  0.00  0.87  0.00  0.00  0.00  0.03  0.00
  YS02001625YS02001629    1.00   0.13  0.04  0.00  0.20  0.00  0.63  0.00  0.00  0.00
  YS02001629YS02163301    1.00   0.15  0.01  0.00  0.84  0.00  0.00  0.00  0.00  0.00
  YS02001633YS02163601    1.00   0.00  0.01  0.00  0.99  0.00  0.00  0.00  0.14  0.00
  YS02001641YS02001644    1.00   0.00  0.01  0.00  0.99  0.00  0.00  0.00  0.00  0.00
  YS02001644YS02001647    1.00   0.00  0.16  0.00  0.84  0.00  0.00  0.00  0.00  0.00
  YS02001647YS02001649    1.00   0.00  0.16  0.00  0.59  0.24  0.00  0.00  0.55  0.00
  YS02001649YS02001757    1.00   0.00  0.00  0.00  0.89  0.11  0.00  0.00  0.40  0.00
  YS02001652YS02001649    1.00   0.00  0.00  0.00  0.97  0.03  0.00  0.00  0.71  0.00
  YS02001655YS02001652    1.00   0.00  0.00  0.00  0.23  0.01  0.00  0.77  0.04  0.00
  YS02001658YS02001655    1.00   0.00  0.14  0.00  0.71  0.16  0.00  0.00  0.63  0.00
  YS02001661YS02001658    1.00   0.14  0.00  0.00  0.55  0.32  0.00  0.00  0.67  0.00
  YS02001664YS02001661    1.00   0.13  0.00  0.00  0.78  0.10  0.00  0.00  0.84  0.00
  YS02001745YS02001748    1.00   0.00  0.00  0.00  0.15  0.01  0.00  0.85  0.05  0.00
  YS02001748YS02001751    1.00   0.00  0.00  0.00  0.87  0.13  0.00  0.00  0.74  0.00
  YS02001751YS02001754    1.00   0.00  0.00  0.00  0.21  0.00  0.00  0.78  0.03  0.00
  YS02001754YS02001757    1.00   0.00  0.00  0.00  1.00  0.00  0.00  0.00  0.77  0.00
  YS02001757CaochengTiaoxuchi    1.00   0.00  0.00  0.00  1.00  0.00  0.00  0.00  0.60  0.00
  YS02001759YS02001757    1.00   0.00  0.00  0.00  0.99  0.01  0.00  0.00  0.51  0.00
  YS02001762YS02001759    1.00   0.00  0.00  0.00  1.00  0.00  0.00  0.00  0.05  0.00
  YS02001765YS02001762    1.00   0.00  0.00  0.00  1.00  0.00  0.00  0.00  0.64  0.00
  YS02001767YS02001765    1.00   0.00  0.00  0.00  1.00  0.00  0.00  0.00  0.01  0.00
  YS02001770YS02001767    1.00   0.00  0.00  0.00  1.00  0.00  0.00  0.00  0.00  0.00
  YS02001774YS02001770    1.00   0.00  0.13  0.00  0.71  0.00  0.16  0.00  0.02  0.00
  YS02001779YS02001774    1.00   0.00  0.00  0.00  1.00  0.00  0.00  0.00  0.74  0.00
  YS02001783YS02001784    1.00   0.00  0.17  0.00  0.83  0.00  0.00  0.00  0.55  0.00
  YS02001784YS02001785    1.00   0.00  0.00  0.00  1.00  0.00  0.00  0.00  0.15  0.00
  YS02001786YS02001788    1.00   0.00  0.00  0.00  0.79  0.21  0.00  0.00  0.00  0.00
  YS02001788YS02001790    1.00   0.00  0.00  0.00  0.20  0.80  0.00  0.00  0.78  0.00
  YS02001790YS02001791    1.00   0.00  0.00  0.00  0.01  0.99  0.00  0.00  0.16  0.00
  YS02001791YS02001793    1.00   0.00  0.00  0.00  0.00  1.00  0.00  0.00  0.01  0.00
  YS02001793JiankangQianchi    1.00   0.00  0.00  0.00  0.98  0.02  0.00  0.00  0.94  0.00
  YS02001882YS02001884    1.00   0.15  0.01  0.00  0.85  0.00  0.00  0.00  0.00  0.00
  YS02001884YS02001887    1.00   0.06  0.05  0.00  0.89  0.00  0.00  0.00  0.00  0.00
  YS02001887YS02001890    1.00   0.00  0.00  0.00  0.97  0.00  0.03  0.00  0.00  0.00
  YS02001890YS02001895    1.00   0.00  0.15  0.00  0.85  0.00  0.00  0.00  0.00  0.00
  YS02001895YS02001898    1.00   0.15  0.00  0.00  0.83  0.00  0.01  0.00  0.00  0.00
  YS02001898YS02001901    1.00   0.16  0.00  0.00  0.84  0.00  0.00  0.00  0.01  0.00
  YS02001901YS02001904    1.00   0.16  0.00  0.00  0.84  0.00  0.00  0.00  0.00  0.00
  YS02001904YS02001907    1.00   0.00  0.15  0.00  0.84  0.00  0.00  0.00  0.00  0.00
  YS02001907YS02006553    1.00   0.00  0.02  0.00  0.98  0.00  0.00  0.00  0.00  0.00
  YS02001910YS02001907    1.00   0.00  0.00  0.00  0.97  0.00  0.00  0.03  0.12  0.00
  YS02001915YS02001910    1.00   0.00  0.00  0.00  0.97  0.03  0.00  0.00  0.13  0.00
  YS02001918YS02001915    1.00   0.00  0.01  0.00  0.98  0.02  0.00  0.00  0.72  0.00
  YS02001920YS02001918    1.00   0.00  0.01  0.00  0.99  0.00  0.00  0.00  0.00  0.00
  YS02001923YS02001920    1.00   0.00  0.00  0.00  1.00  0.00  0.00  0.00  0.90  0.00
  YS02001926YS02001923    1.00   0.00  0.07  0.00  0.08  0.00  0.85  0.00  0.00  0.00
  YS02001929YS02001926    1.00   0.00  0.13  0.00  0.87  0.00  0.00  0.00  0.80  0.00
  YS02006553YS02006556    1.00   0.01  0.00  0.00  0.99  0.00  0.00  0.00  0.03  0.00
  YS02006556YS02006558    1.00   0.00  0.00  0.00  1.00  0.00  0.00  0.00  0.00  0.00
  YS02006558YS02006561    1.00   0.17  0.00  0.00  0.07  0.76  0.00  0.00  0.18  0.00
  YS02006561YS02001783    1.00   0.17  0.00  0.00  0.11  0.72  0.00  0.00  0.66  0.00
  YS02163301YS02001633    1.00   0.00  0.14  0.00  0.86  0.00  0.00  0.00  0.00  0.00
  YS02163601YS02164001    1.00   0.00  0.08  0.00  0.92  0.00  0.00  0.00  0.00  0.00
  YS02164001YS02001641    1.00   0.01  0.07  0.00  0.92  0.00  0.00  0.00  0.05  0.00
  
  
  *************************
  Conduit Surcharge Summary
  *************************
  
  ----------------------------------------------------------------------------
                                                           Hours        Hours 
                         --------- Hours Full --------   Above Full   Capacity
  Conduit                Both Ends  Upstream  Dnstream   Normal Flow   Limited
  ----------------------------------------------------------------------------
  WS02003072WS02003073        0.01      0.01      0.01      1.62         0.01
  WS02004403WS02004404        0.01      0.01      0.01      0.01         0.01
  WS02004404WS02004405        0.01      0.01      0.01      4.34         0.01
  WS02004405WS02004406        0.01      0.01      0.01      0.85         0.01
  WS02006109WS02006110        0.83      0.83      2.26      1.02         0.01
  WS02006110WS02006113        0.01      0.01      2.23      0.01         0.01
  WS02006111WS02006112        0.01      0.01      2.49      0.01         0.01
  WS02006112WS02006115        0.01      0.01      1.21      0.01         0.01
  WS02006228WS02006109        2.19      2.26      2.19      2.83         2.19
  WS02006229WS02006228        2.18      2.21      2.18      2.55         2.17
  WS02006230WS02006229        2.34      2.49      2.34      5.26         2.34
  WS02006231WS02006230        0.86      0.86      1.14      4.71         0.01
  WS02006232WS02006231        1.06      1.06      2.26      1.15         0.01
  WS02006234WS02006232        2.11      2.11      2.26      1.13         1.10
  WS02006235WS02006234        1.47      1.48      2.14      4.40         0.03
  WS02006238WS02006235        2.18      2.18      2.26      0.01         0.01
  WS02006239WS02006238        2.18      2.20      2.22      2.42         1.95
  WS02006240WS02006239        2.15      2.18      2.15      2.44         1.80
  WS02006242WS02006240        2.18      2.18      2.29      2.60         0.01
  WS02006243WS02006242        2.18      2.18      2.21      0.01         0.07
  WS02006245WS02006243        2.18      2.18      2.18      1.55         1.34
  WS02006247WS02006245        2.17      2.18      2.17      4.08         2.16
  WS02006248WS02006247        2.17      2.17      2.17      0.01         0.07
  WS02006249WS02006248        2.17      2.17      2.17      4.01         0.01
  WS02006251WS02006249        2.16      2.16      2.17      2.53         2.06
  WS02006252WS02006251        2.59      2.59      2.60      2.59         0.01
  WS02006256WS02006235        4.48      4.53      6.79      1.46         0.01
  YS02001580YS02001583        0.81      0.81      0.88      0.01         0.01
  YS02001583YS02001586        0.82      0.82      1.00      0.01         0.01
  YS02001586YS02001590        1.01      1.01      1.10      0.01         0.01
  YS02001590YS02001593        1.10      1.10      1.12      1.15         0.01
  YS02001593YS02001596        1.11      1.11      1.24      0.01         0.01
  YS02001596YS02001600        1.29      1.29      1.43      0.01         0.01
  YS02001600YS02001601        1.48      1.48      1.69      0.01         0.01
  YS02001601YS02001602        1.61      1.61      1.72      1.41         0.01
  YS02001602YS02001605        1.57      1.57      1.61      2.40         0.01
  YS02001605YS02001607        1.54      1.57      1.54      1.65         1.53
  YS02001607YS02001610        1.11      1.11      1.15      0.01         0.01
  YS02001610YS02001613        1.11      1.11      1.15      0.01         0.01
  YS02001613YS02001616        1.06      1.06      1.11      0.01         0.01
  YS02001616YS02001619        1.05      1.05      1.06      0.01         0.04
  YS02001619YS02001622        1.05      1.05      1.05      1.04         0.92
  YS02001622YS02001625        1.05      1.05      1.26      0.01         0.01
  YS02001625YS02001629        0.99      0.99      1.26      0.01         0.01
  YS02001629YS02163301        1.26      1.26      1.28      0.05         0.13
  YS02001633YS02163601        1.30      1.30      1.34      0.26         0.26
  YS02001641YS02001644        1.23      1.26      1.23      1.74         1.20
  YS02001644YS02001647        1.00      1.00      1.23      0.03         0.01
  YS02001647YS02001649        1.00      1.00      1.16      0.01         0.01
  YS02001649YS02001757        1.15      1.16      1.25      0.07         0.03
  YS02001652YS02001649        0.95      0.95      1.16      0.01         0.01
  YS02001655YS02001652        0.69      0.69      0.92      0.01         0.01
  YS02001658YS02001655        0.35      0.35      0.69      0.01         0.01
  YS02001661YS02001658        0.09      0.09      0.35      0.01         0.01
  YS02001664YS02001661        0.01      0.01      0.15      0.01         0.01
  YS02001745YS02001748        0.01      0.01      0.26      0.01         0.01
  YS02001748YS02001751        0.31      0.31      0.52      0.01         0.01
  YS02001751YS02001754        0.52      0.52      0.82      0.01         0.01
  YS02001754YS02001757        0.88      0.88      1.25      0.01         0.01
  YS02001757CaochengTiaoxuchi        1.24      1.25      2.20      0.44         0.41
  YS02001759YS02001757        1.13      1.13      1.25      0.01         0.02
  YS02001762YS02001759        1.10      1.10      1.13      0.01         0.01
  YS02001765YS02001762        1.05      1.05      1.10      0.01         0.01
  YS02001767YS02001765        1.01      1.01      1.05      0.01         0.02
  YS02001770YS02001767        1.00      1.00      1.01      0.68         0.65
  YS02001774YS02001770        0.96      0.96      1.08      0.01         0.01
  YS02001779YS02001774        0.80      0.80      1.08      0.01         0.01
  YS02001783YS02001784        0.66      0.69      0.66      0.87         0.66
  YS02001784YS02001785        0.54      0.66      0.54      1.18         0.54
  YS02001786YS02001788        0.01      0.54      0.01      0.99         0.01
  YS02001790YS02001791        0.01      0.01      0.01      0.65         0.01
  YS02001793JiankangQianchi        0.01      0.01      7.67      0.01         0.01
  YS02001882YS02001884        0.62      0.62      0.64      0.01         0.01
  YS02001884YS02001887        0.66      0.66      0.68      0.01         0.01
  YS02001887YS02001890        0.70      0.70      0.71      0.17         0.01
  YS02001890YS02001895        0.61      0.61      0.73      0.01         0.01
  YS02001895YS02001898        0.61      0.61      0.61      0.01         0.01
  YS02001898YS02001901        0.62      0.62      0.66      0.01         0.01
  YS02001901YS02001904        0.65      0.65      0.66      0.01         0.01
  YS02001904YS02001907        0.65      0.65      0.96      0.01         0.01
  YS02001907YS02006553        1.20      1.20      1.29      0.01         0.01
  YS02001910YS02001907        0.73      0.73      0.94      0.01         0.01
  YS02001915YS02001910        0.62      0.62      0.73      0.01         0.01
  YS02001918YS02001915        0.53      0.53      0.62      0.01         0.01
  YS02001920YS02001918        0.53      0.53      0.54      0.01         0.01
  YS02001923YS02001920        0.48      0.48      0.54      0.01         0.01
  YS02001926YS02001923        0.17      0.17      0.20      0.01         0.01
  YS02001929YS02001926        0.01      0.01      0.20      0.01         0.01
  YS02006553YS02006556        0.83      0.83      0.96      0.01         0.01
  YS02006556YS02006558        0.90      0.90      0.99      0.01         0.01
  YS02006558YS02006561        0.57      0.82      0.57      1.11         0.57
  YS02006561YS02001783        0.49      0.49      0.69      0.01         0.01
  YS02163301YS02001633        1.28      1.28      1.32      0.01         0.01
  YS02163601YS02164001        1.25      1.25      1.34      0.06         0.01
  YS02164001YS02001641        1.25      1.25      1.26      0.83         0.75
  
  
  ***************
  Pumping Summary
  ***************
  
  ---------------------------------------------------------------------------------------------------------
                                                  Min       Avg       Max     Total     Power    % Time Off
                        Percent   Number of      Flow      Flow      Flow    Volume     Usage    Pump Curve
  Pump                 Utilized   Start-Ups       LPS       LPS       LPS  10^6 ltr     Kw-hr    Low   High
  ---------------------------------------------------------------------------------------------------------
  CC-R1                   22.25           3      0.00    683.00    683.00     4.377     83.64    0.0    9.4
  CC-R2                   18.21           2      0.00    683.00    683.00     3.582     69.40    0.0    5.7
  CC-S1                   45.95           4      0.00    200.00    200.00     2.647     14.88    0.0    0.0
  CC-S2                   38.64           7      0.00    200.00    200.00     2.226     12.55    0.0    0.0
  JK-R1                   10.23          15      0.00   1000.00   1000.00     2.946     34.14    0.0    0.0
  JK-R2                    0.99           3      0.00   1000.00   1000.00     0.285      2.28    0.0    0.0
  JK-S                    18.18          24      0.00    300.00    300.00     1.571     21.22    0.0    0.0
  

  Analysis begun on:  Mon Jan 13 10:11:34 2025
  Analysis ended on:  Mon Jan 13 10:11:36 2025
  Total elapsed time: 00:00:02