
  EPA STORM WATER MANAGEMENT MODEL - VERSION 5.2 (Build 5.2.4)
  PYSWMM TOOLKIT API - VERSION v1.0 (2023-11-27)
  ------------------------------------------------------------

  WARNING 04: minimum elevation drop used for Conduit WS02004404WS02004405
  WARNING 03: negative offset ignored for Link YS02001904YS02001907
  
  ****************
  Analysis Options
  ****************
  Flow Units ............... LPS
  Process Models:
    Rainfall/Runoff ........ YES
    RDII ................... NO
    Snowmelt ............... NO
    Groundwater ............ NO
    Flow Routing ........... YES
    Ponding Allowed ........ NO
    Water Quality .......... NO
  Infiltration Method ...... HORTON
  Flow Routing Method ...... DYNWAVE
  Surcharge Method ......... EXTRAN
  Starting Date ............ 08/28/2015 08:00:00
  Ending Date .............. 08/28/2015 16:00:00
  Antecedent Dry Days ...... 8.0
  Report Time Step ......... 00:01:00
  Wet Time Step ............ 00:01:00
  Dry Time Step ............ 00:01:00
  Routing Time Step ........ 30.00 sec
  Variable Time Step ....... YES
  Maximum Trials ........... 8
  Number of Threads ........ 4
  Head Tolerance ........... 0.001500 m
  
  
  **************************        Volume         Depth
  Runoff Quantity Continuity     hectare-m            mm
  **************************     ---------       -------
  Total Precipitation ......         2.238        67.478
  Evaporation Loss .........         0.000         0.000
  Infiltration Loss ........         0.100         3.014
  Surface Runoff ...........         2.106        63.484
  Final Storage ............         0.033         0.995
  Continuity Error (%) .....        -0.021
  
  
  **************************        Volume        Volume
  Flow Routing Continuity        hectare-m      10^6 ltr
  **************************     ---------     ---------
  Dry Weather Inflow .......         0.025         0.251
  Wet Weather Inflow .......         2.106        21.058
  Groundwater Inflow .......         0.000         0.000
  RDII Inflow ..............         0.000         0.000
  External Inflow ..........         0.083         0.834
  External Outflow .........         1.535        15.354
  Flooding Loss ............         0.704         7.039
  Evaporation Loss .........         0.000         0.000
  Exfiltration Loss ........         0.000         0.000
  Initial Stored Volume ....         0.243         2.431
  Final Stored Volume ......         0.222         2.219
  Continuity Error (%) .....        -0.157
  
  
  *************************
  Highest Continuity Errors
  *************************
  Node YS02001884 (5.01%)
  Node YS02001583 (-4.46%)
  
  
  ***************************
  Time-Step Critical Elements
  ***************************
  Link WS02006252WS02006251 (49.30%)
  Link WS02006238WS02006235 (14.83%)
  Link WS02003066WSF200 (8.76%)
  Link WS02004404WS02004405 (7.49%)
  Link YS02001791YS02001793 (6.45%)
  
  
  ********************************
  Highest Flow Instability Indexes
  ********************************
  Link WS02006113WS02006111 (44)
  Link WS02006111WS02006112 (21)
  Link WS02006252WS02006251 (14)
  Link WS02006256WS02006235 (13)
  Link WS02006238WS02006235 (12)
  
  
  *********************************
  Most Frequent Nonconverging Nodes
  *********************************
  Node CC-1 (10.24%)
  Node CC-2 (10.24%)
  Node JK-1 (10.24%)
  Node JK-2 (10.24%)
  Node WSC (10.24%)
  
  
  *************************
  Routing Time Step Summary
  *************************
  Minimum Time Step           :     0.01 sec
  Average Time Step           :     1.76 sec
  Maximum Time Step           :     7.04 sec
  % of Time in Steady State   :     0.00
  Average Iterations per Step :     2.93
  % of Steps Not Converging   :    10.24
  Time Step Frequencies       :
     30.000 - 13.228 sec      :     0.00 %
     13.228 -  5.833 sec      :     3.13 %
      5.833 -  2.572 sec      :    20.92 %
      2.572 -  1.134 sec      :    21.98 %
      1.134 -  0.500 sec      :    53.98 %
  
  
  ***************************
  Subcatchment Runoff Summary
  ***************************
  
  ------------------------------------------------------------------------------------------------------------------------------
                            Total      Total      Total      Total     Imperv       Perv      Total       Total     Peak  Runoff
                           Precip      Runon       Evap      Infil     Runoff     Runoff     Runoff      Runoff   Runoff   Coeff
  Subcatchment                 mm         mm         mm         mm         mm         mm         mm    10^6 ltr      LPS
  ------------------------------------------------------------------------------------------------------------------------------
  sub60                     67.48       0.00       0.00       1.81      58.18       6.29      64.47        0.85   569.62   0.955
  sub61                     67.48       0.00       0.00       2.63      54.88       8.85      63.72        1.17   790.33   0.944
  sub62                     67.48       0.00       0.00       1.21      60.79       4.19      64.99        1.78  1115.10   0.963
  sub63                     67.48       0.00       0.00       4.84      46.94      14.73      61.67        1.40   890.37   0.914
  sub64                     67.48       0.00       0.00       2.45      56.15       7.68      63.83        1.53   906.48   0.946
  sub65                     67.48       0.00       0.00       2.12      57.45       6.66      64.11        1.76  1015.99   0.950
  sub66                     67.48       0.00       0.00       6.00      46.83      13.57      60.41        2.82  1333.55   0.895
  sub67                     67.48       0.00       0.00       1.16      60.84       4.24      65.07        1.21   854.20   0.964
  sub68                     67.48       0.00       0.00       2.18      56.85       7.27      64.12        1.76  1143.87   0.950
  sub69                     67.48       0.00       0.00       1.94      57.25       8.19      65.43        2.42  1352.38   0.970
  sub70                     67.48       0.00       0.00       6.47      44.37      16.47      60.84        1.76   749.82   0.902
  sub71                     67.48       0.00       0.00       1.24      60.75       4.16      64.91        1.70   982.11   0.962
  sub72                     67.48       0.00       0.00       1.10      61.35       3.62      64.98        0.89   477.00   0.963
  
  
  ******************
  Node Depth Summary
  ******************
  
  ---------------------------------------------------------------------------------
                                 Average  Maximum  Maximum  Time of Max    Reported
                                   Depth    Depth      HGL   Occurrence   Max Depth
  Node                 Type       Meters   Meters   Meters  days hr:min      Meters
  ---------------------------------------------------------------------------------
  WS02003060           JUNCTION     0.23     0.38     5.31     0  03:08        0.38
  WS02003066           JUNCTION     0.19     0.30     5.85     0  03:07        0.30
  WS02003067           JUNCTION     0.50     0.70     6.02     0  03:07        0.70
  WS02003069           JUNCTION     0.26     0.43     5.01     0  03:08        0.43
  WS02003072           JUNCTION     0.32     0.50     4.87     0  03:09        0.50
  WS02003073           JUNCTION     0.18     0.30     4.36     0  03:09        0.30
  WS02004401           JUNCTION     0.57     0.85     6.85     0  03:04        0.85
  WS02004402           JUNCTION     0.61     0.88     6.84     0  03:05        0.88
  WS02004403           JUNCTION     0.63     0.89     6.82     0  03:05        0.89
  WS02004404           JUNCTION     0.71     0.96     6.81     0  03:05        0.96
  WS02004405           JUNCTION     0.70     0.96     6.81     0  03:05        0.95
  WS02004406           JUNCTION     0.72     0.96     6.79     0  03:05        0.96
  WS02004407           JUNCTION     0.17     0.30     6.61     0  03:05        0.30
  WS02004409           JUNCTION     0.38     0.67     6.44     0  03:06        0.67
  WS02004410           JUNCTION     0.41     0.68     6.40     0  03:06        0.68
  WS02004411           JUNCTION     0.43     0.69     6.37     0  03:06        0.69
  WS02004412           JUNCTION     0.45     0.70     6.34     0  03:06        0.70
  WS02004413           JUNCTION     0.62     0.86     6.33     0  03:07        0.86
  WS02006109           JUNCTION     0.63     1.14     7.76     0  02:26        0.98
  WS02006110           JUNCTION     0.64     1.16     7.74     0  02:26        0.94
  WS02006111           JUNCTION     0.17     0.29     6.99     0  02:41        0.29
  WS02006112           JUNCTION     0.73     1.09     6.97     0  02:27        1.06
  WS02006113           JUNCTION     0.26     0.46     7.35     0  02:41        0.46
  WS02006115           JUNCTION     0.46     0.75     6.89     0  03:04        0.75
  WS02006116           JUNCTION     0.54     0.83     6.87     0  03:04        0.83
  WS02006228           JUNCTION     0.62     1.12     7.77     0  02:26        1.04
  WS02006229           JUNCTION     0.59     1.16     7.85     0  02:26        1.08
  WS02006230           JUNCTION     0.58     1.32     8.06     0  02:26        1.25
  WS02006231           JUNCTION     0.40     1.61     8.73     0  02:10        1.00
  WS02006232           JUNCTION     0.54     1.38     8.42     0  02:00        1.15
  WS02006234           JUNCTION     0.46     1.59     8.75     0  02:00        1.24
  WS02006235           JUNCTION     0.50     1.88     9.04     0  02:00        1.42
  WS02006238           JUNCTION     0.53     1.95     9.09     0  02:00        1.46
  WS02006239           JUNCTION     0.49     1.95     9.16     0  02:00        1.38
  WS02006240           JUNCTION     0.46     1.83     9.12     0  02:00        1.36
  WS02006242           JUNCTION     0.53     1.55     8.82     0  01:56        1.42
  WS02006243           JUNCTION     0.44     1.48     8.90     0  02:00        1.29
  WS02006245           JUNCTION     0.44     1.43     8.91     0  02:00        1.23
  WS02006247           JUNCTION     0.47     1.34     8.84     0  02:00        1.20
  WS02006248           JUNCTION     0.43     1.10     8.69     0  02:00        1.10
  WS02006249           JUNCTION     0.47     1.09     8.69     0  01:57        1.09
  WS02006251           JUNCTION     0.46     1.36     9.03     0  01:57        1.31
  WS02006252           JUNCTION     0.35     1.50     9.74     0  00:00        0.87
  WS02006256           JUNCTION     0.95     2.35     9.28     0  00:00        2.35
  WSF200               JUNCTION     0.17     0.29     5.52     0  03:07        0.29
  YS02001580           JUNCTION     0.08     1.05     9.59     0  01:53        0.77
  YS02001583           JUNCTION     0.11     1.14     9.64     0  01:53        0.82
  YS02001586           JUNCTION     0.17     1.13     9.30     0  01:53        1.13
  YS02001590           JUNCTION     0.26     1.40     9.26     0  01:53        1.37
  YS02001593           JUNCTION     0.19     1.33     9.20     0  01:53        1.28
  YS02001596           JUNCTION     0.27     1.69     9.11     0  01:53        1.65
  YS02001600           JUNCTION     0.32     1.87     9.00     0  01:53        1.86
  YS02001601           JUNCTION     0.50     2.06     8.90     0  01:52        2.06
  YS02001602           JUNCTION     0.42     1.87     8.77     0  01:52        1.87
  YS02001605           JUNCTION     0.39     1.78     8.68     0  01:52        1.78
  YS02001607           JUNCTION     0.39     1.68     8.53     0  01:52        1.64
  YS02001610           JUNCTION     0.44     1.68     8.48     0  01:52        1.68
  YS02001613           JUNCTION     0.39     1.70     8.54     0  01:53        1.66
  YS02001616           JUNCTION     0.32     1.61     8.52     0  01:52        1.60
  YS02001619           JUNCTION     0.30     1.61     8.54     0  01:52        1.61
  YS02001622           JUNCTION     0.29     1.62     8.52     0  01:52        1.57
  YS02001625           JUNCTION     0.57     1.78     8.38     0  01:53        1.78
  YS02001629           JUNCTION     0.40     1.85     8.40     0  01:53        1.85
  YS02001633           JUNCTION     0.48     2.01     8.47     0  01:57        1.99
  YS02001641           JUNCTION     0.48     1.95     8.39     0  01:58        1.94
  YS02001644           JUNCTION     0.47     1.92     8.35     0  01:57        1.92
  YS02001647           JUNCTION     0.27     1.81     8.42     0  01:58        1.81
  YS02001649           JUNCTION     0.30     2.05     8.44     0  01:58        2.05
  YS02001652           JUNCTION     0.21     1.90     8.50     0  01:58        1.85
  YS02001655           JUNCTION     0.16     1.81     8.66     0  01:57        1.58
  YS02001658           JUNCTION     0.12     1.77     8.91     0  01:57        1.34
  YS02001661           JUNCTION     0.15     1.45     8.85     0  01:58        1.12
  YS02001664           JUNCTION     0.05     0.61     8.53     0  01:58        0.57
  YS02001745           JUNCTION     0.06     0.84     8.36     0  02:01        0.83
  YS02001748           JUNCTION     0.11     1.76     8.84     0  01:57        1.50
  YS02001751           JUNCTION     0.14     1.95     8.83     0  01:58        1.95
  YS02001754           JUNCTION     0.19     2.20     8.81     0  01:58        2.20
  YS02001757           JUNCTION     0.33     2.21     8.47     0  01:58        2.21
  YS02001759           JUNCTION     0.28     2.12     8.49     0  01:58        2.12
  YS02001762           JUNCTION     0.27     2.07     8.47     0  01:58        2.01
  YS02001765           JUNCTION     0.25     2.02     8.47     0  01:58        1.95
  YS02001767           JUNCTION     0.25     1.96     8.45     0  01:58        1.92
  YS02001770           JUNCTION     0.26     1.95     8.44     0  01:58        1.94
  YS02001774           JUNCTION     0.32     2.00     8.42     0  01:58        1.99
  YS02001779           JUNCTION     0.17     1.68     8.37     0  01:56        1.68
  YS02001783           JUNCTION     0.21     1.42     7.56     0  01:56        1.23
  YS02001784           JUNCTION     0.22     1.22     7.29     0  01:56        1.12
  YS02001786           JUNCTION     0.19     0.93     6.96     0  01:56        0.87
  YS02001788           JUNCTION     0.13     0.62     6.60     0  02:00        0.62
  YS02001790           JUNCTION     0.16     0.73     6.37     0  01:59        0.73
  YS02001791           JUNCTION     0.10     0.44     5.91     0  02:02        0.43
  YS02001793           JUNCTION     0.05     0.30     5.13     0  02:00        0.29
  YS02001882           JUNCTION     0.27     1.66     8.38     0  02:00        1.65
  YS02001884           JUNCTION     0.36     1.75     8.37     0  02:00        1.75
  YS02001887           JUNCTION     0.44     1.83     8.37     0  02:00        1.83
  YS02001890           JUNCTION     0.47     1.81     8.32     0  01:56        1.81
  YS02001895           JUNCTION     0.24     1.57     8.31     0  01:58        1.56
  YS02001898           JUNCTION     0.25     1.56     8.30     0  02:00        1.56
  YS02001901           JUNCTION     0.37     1.68     8.29     0  02:03        1.68
  YS02001904           JUNCTION     0.35     1.64     8.27     0  02:03        1.64
  YS02001907           JUNCTION     0.67     1.96     8.25     0  01:56        1.96
  YS02001910           JUNCTION     0.47     2.02     8.52     0  01:57        1.90
  YS02001915           JUNCTION     0.27     1.99     8.71     0  01:57        1.81
  YS02001918           JUNCTION     0.14     1.81     8.88     0  01:57        1.47
  YS02001920           JUNCTION     0.22     2.14     9.15     0  01:57        1.55
  YS02001923           JUNCTION     0.11     2.03     9.29     0  01:57        1.29
  YS02001926           JUNCTION     0.14     1.90     9.35     0  01:57        1.79
  YS02001929           JUNCTION     0.08     1.78     9.47     0  01:57        0.88
  YS02006553           JUNCTION     0.68     1.99     8.27     0  01:56        1.97
  YS02006556           JUNCTION     0.65     2.00     8.31     0  01:56        1.96
  YS02006558           JUNCTION     0.69     2.06     8.33     0  01:56        2.00
  YS02006561           JUNCTION     0.13     1.08     7.74     0  01:56        0.90
  YS02163301           JUNCTION     0.43     1.91     8.43     0  01:58        1.91
  YS02163601           JUNCTION     0.53     2.04     8.44     0  01:57        2.01
  YS02164001           JUNCTION     0.46     1.95     8.41     0  01:57        1.93
  CC-1                 OUTFALL      0.00     0.00     0.00     0  00:00        0.00
  CC-2                 OUTFALL      0.00     0.00     0.00     0  00:00        0.00
  JK-1                 OUTFALL      0.00     0.00     0.00     0  00:00        0.00
  JK-2                 OUTFALL      0.00     0.00     0.00     0  00:00        0.00
  WSC                  OUTFALL      0.18     0.30     0.97     0  03:10        0.30
  CC-storage           STORAGE      0.93     1.77     7.27     0  02:30        1.77
  JK-storage           STORAGE      3.33     4.24     5.04     0  02:00        4.20
  
  
  *******************
  Node Inflow Summary
  *******************
  
  -------------------------------------------------------------------------------------------------
                                  Maximum  Maximum                  Lateral       Total        Flow
                                  Lateral    Total  Time of Max      Inflow      Inflow     Balance
                                   Inflow   Inflow   Occurrence      Volume      Volume       Error
  Node                 Type           LPS      LPS  days hr:min    10^6 ltr    10^6 ltr     Percent
  -------------------------------------------------------------------------------------------------
  WS02003060           JUNCTION     16.53   552.38     0  03:07       0.476        6.08       0.057
  WS02003066           JUNCTION      0.00   535.68     0  03:07           0         5.6       0.034
  WS02003067           JUNCTION      0.00   535.63     0  03:07           0        5.61       0.086
  WS02003069           JUNCTION      0.32   552.60     0  03:08     0.00922        6.08       0.099
  WS02003072           JUNCTION      0.00   552.42     0  03:08           0        6.08       0.167
  WS02003073           JUNCTION      1.82   554.13     0  03:09      0.0524        6.12       0.155
  WS02004401           JUNCTION      0.00   537.54     0  03:04           0        5.72       0.191
  WS02004402           JUNCTION      0.00   537.21     0  03:04           0        5.71       0.193
  WS02004403           JUNCTION      0.00   537.08     0  03:05           0         5.7       0.187
  WS02004404           JUNCTION      0.16   537.05     0  03:05     0.00467        5.69       0.161
  WS02004405           JUNCTION      0.04   536.80     0  03:05      0.0011        5.69       0.225
  WS02004406           JUNCTION      0.00   536.97     0  03:05           0        5.67       0.382
  WS02004407           JUNCTION      0.00   536.62     0  03:05           0        5.65       0.028
  WS02004409           JUNCTION      0.00   536.49     0  03:05           0        5.65       0.070
  WS02004410           JUNCTION      0.00   536.20     0  03:06           0        5.65       0.104
  WS02004411           JUNCTION      0.00   535.99     0  03:06           0        5.64       0.126
  WS02004412           JUNCTION      0.00   535.77     0  03:06           0        5.63       0.162
  WS02004413           JUNCTION      0.00   535.79     0  03:06           0        5.62       0.275
  WS02006109           JUNCTION      1.23   553.71     0  02:06      0.0354        5.77       0.073
  WS02006110           JUNCTION      0.00   555.02     0  02:06           0        5.76       0.122
  WS02006111           JUNCTION      0.00   563.78     0  02:41           0        5.75       0.011
  WS02006112           JUNCTION      0.00   543.93     0  02:41           0        5.75       0.316
  WS02006113           JUNCTION      0.00   566.55     0  02:19           0        5.76       0.039
  WS02006115           JUNCTION      0.00   548.91     0  02:22           0        5.74       0.126
  WS02006116           JUNCTION      0.00   539.18     0  02:25           0        5.73       0.115
  WS02006228           JUNCTION      0.00   552.22     0  02:06           0        5.73       0.008
  WS02006229           JUNCTION      0.00   551.32     0  02:19           0        5.74       0.134
  WS02006230           JUNCTION     10.28   592.85     0  02:52       0.296        5.74       0.057
  WS02006231           JUNCTION      0.00   588.42     0  02:00           0        5.44      -0.106
  WS02006232           JUNCTION      0.00   584.68     0  02:52           0        5.46       0.298
  WS02006234           JUNCTION      0.00   576.58     0  02:52           0        5.44      -0.263
  WS02006235           JUNCTION      0.00   564.14     0  02:52           0        5.51       0.247
  WS02006238           JUNCTION      0.00   424.35     0  02:45           0        4.57      -0.302
  WS02006239           JUNCTION      0.00   423.56     0  02:45           0        4.53      -0.284
  WS02006240           JUNCTION      0.00   420.89     0  02:45           0        4.49      -0.064
  WS02006242           JUNCTION      0.00   421.50     0  02:45           0        4.47       0.040
  WS02006243           JUNCTION      0.00   420.65     0  02:45           0        4.46      -0.071
  WS02006245           JUNCTION      0.00   420.27     0  02:45           0        4.48       0.534
  WS02006247           JUNCTION      0.00   419.40     0  02:45           0        4.49       0.027
  WS02006248           JUNCTION      0.00   419.43     0  02:25           0        4.49       0.125
  WS02006249           JUNCTION      0.00   459.02     0  00:00           0        4.75       0.410
  WS02006251           JUNCTION      0.08   406.44     0  01:57     0.00222        4.75      -0.024
  WS02006252           JUNCTION      0.00   400.00     0  00:00           0        4.74      -0.066
  WS02006256           JUNCTION      0.00   300.00     0  00:00           0        1.41      -0.804
  WSF200               JUNCTION      0.00   535.72     0  03:07           0         5.6       0.016
  YS02001580           JUNCTION      0.00   138.65     0  01:53           0     0.00441      -2.291
  YS02001583           JUNCTION      0.00   164.00     0  01:53           0      0.0155      -4.265
  YS02001586           JUNCTION    749.82   749.82     0  02:04        1.76        1.77       0.069
  YS02001590           JUNCTION      0.00   317.87     0  02:04           0        1.36      -0.025
  YS02001593           JUNCTION      0.00   317.98     0  02:04           0        1.36      -0.008
  YS02001596           JUNCTION      0.00   317.97     0  02:04           0        1.36      -0.012
  YS02001600           JUNCTION      0.00   318.05     0  02:04           0        1.36       0.008
  YS02001601           JUNCTION   1352.38  1669.94     0  02:03        2.42        3.79       0.021
  YS02001602           JUNCTION      0.00   519.36     0  01:52           0         2.3       0.015
  YS02001605           JUNCTION      0.00   519.50     0  01:52           0        2.17       0.018
  YS02001607           JUNCTION      0.00   519.62     0  01:52           0        2.17       0.084
  YS02001610           JUNCTION      0.00   734.68     0  02:04           0        2.42       0.092
  YS02001613           JUNCTION      0.00   529.22     0  01:52           0        1.92       0.080
  YS02001616           JUNCTION      0.00   530.25     0  01:52           0        1.92       0.016
  YS02001619           JUNCTION   1333.55  1333.55     0  02:04        2.82        4.49      -0.004
  YS02001622           JUNCTION      0.00   951.92     0  02:02           0        4.24       0.000
  YS02001625           JUNCTION      0.00  1352.96     0  02:04           0        4.47       0.207
  YS02001629           JUNCTION      0.00   920.98     0  01:53           0        3.42       0.016
  YS02001633           JUNCTION   1016.19  1358.58     0  01:55        1.77        4.91       0.070
  YS02001641           JUNCTION      0.00  1358.21     0  01:55           0        4.65       0.059
  YS02001644           JUNCTION    906.52  1756.13     0  01:55        1.53        6.18       0.052
  YS02001647           JUNCTION      0.00  1756.38     0  01:55           0        5.65       0.007
  YS02001649           JUNCTION      0.00  1963.45     0  01:54           0        7.05      -0.001
  YS02001652           JUNCTION      0.00   920.60     0  02:02           0        1.41      -0.067
  YS02001655           JUNCTION      0.15   921.25     0  02:02     0.00443        1.41      -0.032
  YS02001658           JUNCTION      0.00   920.28     0  02:02           0         1.4      -0.030
  YS02001661           JUNCTION      0.00   918.56     0  02:02           0         1.4      -0.004
  YS02001664           JUNCTION    890.37   890.37     0  02:02         1.4         1.4      -0.009
  YS02001745           JUNCTION    569.62   569.62     0  02:02       0.847       0.848       0.175
  YS02001748           JUNCTION      0.04   585.34     0  02:01      0.0013       0.849      -0.323
  YS02001751           JUNCTION      0.01   585.70     0  02:01    0.000317       0.857       0.070
  YS02001754           JUNCTION      0.26   586.22     0  02:01     0.00749       0.872      -0.185
  YS02001757           JUNCTION      0.00  3204.32     0  02:00           0        10.6       0.014
  YS02001759           JUNCTION    790.37  1335.66     0  02:01        1.17        2.73      -0.011
  YS02001762           JUNCTION      0.00   684.42     0  01:57           0        1.56      -0.003
  YS02001765           JUNCTION      0.00   686.97     0  01:58           0        1.56       0.004
  YS02001767           JUNCTION      0.54   691.31     0  01:58      0.0154        1.56       0.023
  YS02001770           JUNCTION   1115.26  1115.26     0  02:02        1.79        1.83      -0.037
  YS02001774           JUNCTION      0.00   615.33     0  02:02           0       0.309       0.340
  YS02001779           JUNCTION      0.01   616.83     0  02:02    0.000144       0.263      -0.336
  YS02001783           JUNCTION      0.00  1166.34     0  02:01           0        4.14       0.005
  YS02001784           JUNCTION      1.06  1167.88     0  02:01      0.0305        4.17       0.012
  YS02001786           JUNCTION      0.06  1168.34     0  02:00     0.00162        4.17       0.017
  YS02001788           JUNCTION      0.07  1169.52     0  02:00     0.00204        4.17       0.007
  YS02001790           JUNCTION      0.15  1178.68     0  02:00     0.00446        4.18       0.017
  YS02001791           JUNCTION      0.00  1294.62     0  01:59           0        4.18      -0.020
  YS02001793           JUNCTION      0.00  1258.74     0  02:00           0        4.18       0.003
  YS02001882           JUNCTION      0.00    51.65     0  01:54           0      0.0127       4.817
  YS02001884           JUNCTION      0.00    75.49     0  01:54           0      0.0486       5.269
  YS02001887           JUNCTION    854.65   856.65     0  02:01        1.22        1.26       0.352
  YS02001890           JUNCTION      0.00   857.45     0  02:01           0        1.22       0.421
  YS02001895           JUNCTION      0.00   517.70     0  02:03           0         1.1       0.144
  YS02001898           JUNCTION      0.00   517.98     0  02:06           0         1.1       0.011
  YS02001901           JUNCTION      0.00   517.87     0  02:06           0         1.1       0.287
  YS02001904           JUNCTION      0.00   517.56     0  02:06           0         1.1       0.261
  YS02001907           JUNCTION      0.00  1993.64     0  02:02           0        3.77       0.485
  YS02001910           JUNCTION      0.00  1477.01     0  02:02           0        2.67       0.264
  YS02001915           JUNCTION    982.13  1476.97     0  02:02         1.7        2.71       0.056
  YS02001918           JUNCTION      0.00   495.79     0  02:02           0        1.04       0.007
  YS02001920           JUNCTION      2.87   495.90     0  02:02      0.0827        1.03       0.078
  YS02001923           JUNCTION      0.04   491.99     0  02:02     0.00109       0.928      -0.070
  YS02001926           JUNCTION      0.05   530.55     0  01:56      0.0015       0.907      -0.118
  YS02001929           JUNCTION    477.00   477.00     0  02:03       0.893       0.895      -0.040
  YS02006553           JUNCTION      0.00   797.42     0  02:19           0         2.4       0.493
  YS02006556           JUNCTION      0.00   796.39     0  02:21           0        2.41       0.332
  YS02006558           JUNCTION   1144.75  1178.69     0  01:56        1.79        4.17       0.085
  YS02006561           JUNCTION      0.00  1177.85     0  01:56           0        4.14       0.000
  YS02163301           JUNCTION      0.00   918.23     0  01:54           0        3.41       0.037
  YS02163601           JUNCTION      0.11  1358.80     0  01:55     0.00317        4.64       0.107
  YS02164001           JUNCTION      0.00  1357.35     0  01:55           0        4.64       0.044
  CC-1                 OUTFALL       0.00   683.00     0  00:00           0        3.56       0.000
  CC-2                 OUTFALL       0.00   683.00     0  00:00           0        2.97       0.000
  JK-1                 OUTFALL       0.00  1000.00     0  00:00           0        2.07       0.000
  JK-2                 OUTFALL       0.00  1000.00     0  00:00           0       0.647       0.000
  WSC                  OUTFALL       0.00   553.98     0  03:10           0        6.11       0.000
  CC-storage           STORAGE       0.00  3203.55     0  01:59           0        12.9      -0.174
  JK-storage           STORAGE       0.00  1217.10     0  02:08           0        4.33       0.172
  
  
  **********************
  Node Surcharge Summary
  **********************
  
  Surcharging occurs when water rises above the top of the highest conduit.
  ---------------------------------------------------------------------
                                               Max. Height   Min. Depth
                                   Hours       Above Crown    Below Rim
  Node                 Type      Surcharged         Meters       Meters
  ---------------------------------------------------------------------
  WS02006109           JUNCTION        2.07          0.318        1.502
  WS02006110           JUNCTION        0.77          0.250        1.600
  WS02006112           JUNCTION        0.85          0.089        1.591
  WS02006228           JUNCTION        2.07          0.293        1.907
  WS02006229           JUNCTION        2.08          0.359        2.091
  WS02006230           JUNCTION        0.76          0.237        1.333
  WS02006231           JUNCTION        0.95          0.897        0.633
  WS02006232           JUNCTION        2.10          0.681        0.799
  WS02006234           JUNCTION        1.38          0.871        0.369
  WS02006235           JUNCTION        2.03          1.168        0.122
  WS02006238           JUNCTION        2.07          1.231        0.199
  WS02006239           JUNCTION        2.05          1.214        0.076
  WS02006240           JUNCTION        2.07          1.117        0.273
  WS02006242           JUNCTION        2.10          0.820        0.000
  WS02006243           JUNCTION        2.06          0.770        0.000
  WS02006245           JUNCTION        2.06          0.716        0.134
  WS02006247           JUNCTION        2.06          0.632        0.128
  WS02006248           JUNCTION        2.05          0.380        0.000
  WS02006249           JUNCTION        2.05          0.390        0.000
  WS02006251           JUNCTION        1.05          0.331        0.849
  WS02006252           JUNCTION        2.53          1.100        0.000
  WS02006256           JUNCTION        6.91          2.050        0.000
  YS02001580           JUNCTION        0.65          0.450        0.000
  YS02001583           JUNCTION        0.66          0.500        0.000
  YS02001586           JUNCTION        0.80          0.510        0.000
  YS02001590           JUNCTION        0.88          0.750        0.000
  YS02001593           JUNCTION        0.88          0.713        0.127
  YS02001596           JUNCTION        1.00          0.961        0.109
  YS02001600           JUNCTION        1.16          1.190        0.000
  YS02001601           JUNCTION        1.48          1.440        0.000
  YS02001602           JUNCTION        1.39          1.270        0.000
  YS02001605           JUNCTION        1.35          1.180        0.000
  YS02001607           JUNCTION        0.88          0.680        0.000
  YS02001610           JUNCTION        0.91          0.680        0.000
  YS02001613           JUNCTION        0.87          0.700        0.000
  YS02001616           JUNCTION        0.83          0.610        0.000
  YS02001619           JUNCTION        0.82          0.610        0.000
  YS02001622           JUNCTION        0.82          0.620        0.000
  YS02001625           JUNCTION        1.00          0.780        0.000
  YS02001629           JUNCTION        0.77          0.470        0.000
  YS02001633           JUNCTION        1.04          0.993        0.067
  YS02001641           JUNCTION        0.99          0.949        0.151
  YS02001644           JUNCTION        0.96          0.920        0.000
  YS02001647           JUNCTION        0.75          0.809        0.091
  YS02001649           JUNCTION        0.89          1.050        0.000
  YS02001652           JUNCTION        0.69          0.872        0.258
  YS02001655           JUNCTION        0.51          0.810        0.390
  YS02001658           JUNCTION        0.27          0.768        0.532
  YS02001661           JUNCTION        0.04          0.377        1.013
  YS02001748           JUNCTION        0.21          0.679        0.511
  YS02001751           JUNCTION        0.38          0.950        0.250
  YS02001754           JUNCTION        0.59          1.150        0.000
  YS02001757           JUNCTION        0.96          1.210        0.000
  YS02001759           JUNCTION        0.87          1.122        0.088
  YS02001762           JUNCTION        0.83          1.067        0.083
  YS02001765           JUNCTION        0.79          1.019        0.081
  YS02001767           JUNCTION        0.76          0.960        0.070
  YS02001770           JUNCTION        0.72          0.920        0.000
  YS02001774           JUNCTION        0.82          1.002        0.048
  YS02001779           JUNCTION        0.58          0.680        0.000
  YS02001783           JUNCTION        0.57          0.617        0.983
  YS02001784           JUNCTION        0.55          0.423        1.067
  YS02001786           JUNCTION        0.44          0.131        1.299
  YS02001882           JUNCTION        0.51          0.664        0.166
  YS02001884           JUNCTION        0.53          0.694        0.176
  YS02001887           JUNCTION        0.56          0.782        0.168
  YS02001890           JUNCTION        0.57          0.760        0.000
  YS02001895           JUNCTION        0.50          0.567        0.183
  YS02001898           JUNCTION        0.50          0.535        0.205
  YS02001901           JUNCTION        0.55          0.679        0.191
  YS02001904           JUNCTION        0.54          0.640        0.210
  YS02001907           JUNCTION        0.79          0.950        0.000
  YS02001910           JUNCTION        0.60          1.018        0.082
  YS02001915           JUNCTION        0.51          0.988        0.012
  YS02001918           JUNCTION        0.42          0.810        0.000
  YS02001920           JUNCTION        0.44          1.140        0.000
  YS02001923           JUNCTION        0.12          0.820        0.000
  YS02001926           JUNCTION        0.15          0.900        0.000
  YS02001929           JUNCTION        0.01          0.780        0.000
  YS02006553           JUNCTION        0.80          0.987        0.203
  YS02006556           JUNCTION        0.69          0.957        0.393
  YS02006558           JUNCTION        0.68          0.961        0.439
  YS02006561           JUNCTION        0.39          0.282        0.868
  YS02163301           JUNCTION        1.02          0.911        0.119
  YS02163601           JUNCTION        1.08          1.039        0.041
  YS02164001           JUNCTION        0.99          0.951        0.149
  
  
  *********************
  Node Flooding Summary
  *********************
  
  Flooding refers to all water that overflows a node, whether it ponds or not.
  --------------------------------------------------------------------------
                                                             Total   Maximum
                                 Maximum   Time of Max       Flood    Ponded
                        Hours       Rate    Occurrence      Volume     Depth
  Node                 Flooded       LPS   days hr:min    10^6 ltr    Meters
  --------------------------------------------------------------------------
  WS02006242              0.01    116.62      0  01:56       0.000     0.000
  WS02006243              0.01      3.60      0  02:00       0.000     0.000
  WS02006248              0.01     27.33      0  02:00       0.001     0.000
  WS02006249              1.01     97.65      0  01:57       0.236     0.000
  WS02006252              0.01    245.63      0  00:00       0.000     0.000
  WS02006256              1.30    293.19      0  00:00       0.451     0.000
  YS02001580              0.01    129.12      0  01:53       0.000     0.000
  YS02001583              0.01     40.73      0  01:53       0.000     0.000
  YS02001586              0.52    432.04      0  02:04       0.393     0.000
  YS02001590              0.01      7.18      0  01:53       0.000     0.000
  YS02001600              0.01      3.00      0  01:53       0.000     0.000
  YS02001601              0.72   1272.09      0  02:03       1.484     0.000
  YS02001602              0.63     62.02      0  02:20       0.128     0.000
  YS02001605              0.01      6.22      0  01:53       0.000     0.000
  YS02001607              0.01     15.33      0  01:52       0.000     0.000
  YS02001610              0.55    734.40      0  02:04       0.741     0.000
  YS02001613              0.01     29.88      0  01:53       0.000     0.000
  YS02001616              0.01     26.33      0  01:53       0.000     0.000
  YS02001619              0.01     39.33      0  01:53       0.000     0.000
  YS02001622              0.01     79.02      0  01:52       0.000     0.000
  YS02001625              0.53   1352.80      0  02:04       1.313     0.000
  YS02001629              0.13    175.05      0  02:00       0.045     0.000
  YS02001644              0.23   1137.75      0  02:02       0.518     0.000
  YS02001649              0.01     13.03      0  01:58       0.000     0.000
  YS02001754              0.01     56.36      0  01:58       0.000     0.000
  YS02001757              0.01     36.00      0  01:58       0.000     0.000
  YS02001770              0.01     12.43      0  01:58       0.000     0.000
  YS02001779              0.20    616.47      0  02:02       0.245     0.000
  YS02001890              0.18    342.37      0  02:01       0.112     0.000
  YS02001907              0.37   1959.94      0  02:02       1.365     0.000
  YS02001918              0.01    197.24      0  01:57       0.002     0.000
  YS02001920              0.01     62.57      0  01:57       0.000     0.000
  YS02001923              0.01    114.64      0  01:57       0.000     0.000
  YS02001926              0.01    191.07      0  01:57       0.001     0.000
  YS02001929              0.01     82.18      0  01:57       0.000     0.000
  
  
  **********************
  Storage Volume Summary
  **********************
  
  ------------------------------------------------------------------------------------------------
                         Average    Avg   Evap  Exfil     Maximum    Max    Time of Max    Maximum
                          Volume   Pcnt   Pcnt   Pcnt      Volume   Pcnt     Occurrence    Outflow
  Storage Unit           1000 m³   Full   Loss   Loss     1000 m³   Full    days hr:min        LPS
  ------------------------------------------------------------------------------------------------
  CC-storage               2.580   40.3    0.0    0.0       4.927   76.9       0  02:30    1783.53
  JK-storage               0.167   57.4    0.0    0.0       0.213   73.1       0  02:00    2300.00
  
  
  ***********************
  Outfall Loading Summary
  ***********************
  
  -----------------------------------------------------------
                         Flow       Avg       Max       Total
                         Freq      Flow      Flow      Volume
  Outfall Node           Pcnt       LPS       LPS    10^6 ltr
  -----------------------------------------------------------
  CC-1                  16.82    683.00    683.00       3.559
  CC-2                  14.29    683.00    683.00       2.966
  JK-1                   8.21   1000.00   1000.00       2.073
  JK-2                   2.31   1000.00   1000.00       0.647
  WSC                   99.96    245.52    553.98       6.109
  -----------------------------------------------------------
  System                28.32   3611.52   3366.23      15.354
  
  
  ********************
  Link Flow Summary
  ********************
  
  -----------------------------------------------------------------------------
                                 Maximum  Time of Max   Maximum    Max/    Max/
                                  |Flow|   Occurrence   |Veloc|    Full    Full
  Link                 Type          LPS  days hr:min     m/sec    Flow   Depth
  -----------------------------------------------------------------------------
  1                    CONDUIT    553.98     0  03:10      2.83    0.19    0.30
  WS02003060WS02003069 CONDUIT    552.28     0  03:08      1.64    0.22    0.34
  WS02003066WSF200     CONDUIT    535.72     0  03:07      2.85    0.09    0.22
  WS02003067WS02003066 CONDUIT    535.68     0  03:07      1.21    0.17    0.42
  WS02003069WS02003072 CONDUIT    552.42     0  03:08      1.37    0.27    0.39
  WS02003072WS02003073 CONDUIT    552.31     0  03:09      1.43    1.19    0.37
  WS02004401WS02004402 CONDUIT    537.21     0  03:04      0.98    0.64    0.86
  WS02004402WS02004403 CONDUIT    537.08     0  03:05      0.97    0.77    0.88
  WS02004403WS02004404 CONDUIT    536.89     0  03:05      0.92    0.39    0.93
  WS02004404WS02004405 CONDUIT    536.76     0  03:05      1.08    5.26    0.96
  WS02004405WS02004406 CONDUIT    536.97     0  03:05      0.99    1.06    0.96
  WS02004406WS02004407 CONDUIT    536.62     0  03:05      1.04    0.24    0.63
  WS02004407WS02004409 CONDUIT    536.49     0  03:05      1.53    0.19    0.48
  WS02004409WS02004410 CONDUIT    536.20     0  03:06      1.01    0.69    0.67
  WS02004410WS02004411 CONDUIT    535.99     0  03:06      0.94    0.73    0.69
  WS02004411WS02004412 CONDUIT    535.77     0  03:06      0.92    0.76    0.69
  WS02004412WS02004413 CONDUIT    535.79     0  03:06      0.82    0.36    0.78
  WS02004413WS02003067 CONDUIT    535.63     0  03:07      1.11    0.23    0.59
  WS02006109WS02006110 CONDUIT    555.02     0  02:06      1.10    1.07    1.00
  WS02006110WS02006113 CONDUIT    566.55     0  02:19      1.37    0.52    0.79
  WS02006111WS02006112 CONDUIT    543.93     0  02:41      1.81    0.26    0.67
  WS02006112WS02006115 CONDUIT    548.91     0  02:22      0.84    0.32    0.87
  WS02006113WS02006111 CONDUIT    563.78     0  02:41      2.47    0.68    0.46
  WS02006115WS02006116 CONDUIT    539.18     0  02:25      1.02    0.69    0.76
  WS02006116WS02004401 CONDUIT    537.54     0  03:04      0.98    0.74    0.84
  WS02006228WS02006109 CONDUIT    552.48     0  02:06      1.10    2.41    1.00
  WS02006229WS02006228 CONDUIT    552.22     0  02:06      1.14    1.83    1.00
  WS02006230WS02006229 CONDUIT    551.32     0  02:19      1.43   12.27    1.00
  WS02006231WS02006230 CONDUIT    582.57     0  02:52      1.59    8.84    1.00
  WS02006232WS02006231 CONDUIT    588.42     0  02:00      1.53    1.23    1.00
  WS02006234WS02006232 CONDUIT    584.68     0  02:52      1.52    1.18    1.00
  WS02006235WS02006234 CONDUIT    576.58     0  02:52      1.50    6.08    1.00
  WS02006238WS02006235 CONDUIT    427.08     0  02:45      1.46    0.95    1.00
  WS02006239WS02006238 CONDUIT    424.35     0  02:45      1.22    1.36    1.00
  WS02006240WS02006239 CONDUIT    423.56     0  02:45      1.30    1.33    1.00
  WS02006242WS02006240 CONDUIT    420.89     0  02:45      1.17    1.67    1.00
  WS02006243WS02006242 CONDUIT    421.50     0  02:45      1.43    0.90    1.00
  WS02006245WS02006243 CONDUIT    420.65     0  02:45      1.45    1.24    1.00
  WS02006247WS02006245 CONDUIT    420.27     0  02:45      1.43    3.33    1.00
  WS02006248WS02006247 CONDUIT    419.40     0  02:45      1.46    0.91    1.00
  WS02006249WS02006248 CONDUIT    419.43     0  02:25      1.39    2.30    1.00
  WS02006251WS02006249 CONDUIT    459.02     0  00:00      1.99    1.32    1.00
  WS02006252WS02006251 CONDUIT    406.36     0  01:57     26.09    1.49    1.00
  WS02006256WS02006235 CONDUIT    288.91     0  00:00      4.23    3.06    1.00
  WSF200WS02003060     CONDUIT    535.85     0  03:07      2.06    0.12    0.28
  YS02001580YS02001583 CONDUIT    138.65     0  01:53      0.66    0.54    1.00
  YS02001583YS02001586 CONDUIT    156.79     0  01:53      0.68    0.24    1.00
  YS02001586YS02001590 CONDUIT    317.87     0  02:04      1.25    0.56    1.00
  YS02001590YS02001593 CONDUIT    317.98     0  02:04      1.12    2.00    1.00
  YS02001593YS02001596 CONDUIT    317.97     0  02:04      1.73    0.50    1.00
  YS02001596YS02001600 CONDUIT    318.05     0  02:04      1.24    0.62    1.00
  YS02001600YS02001601 CONDUIT    317.94     0  02:04      1.12    0.55    1.00
  YS02001601YS02001602 CONDUIT    519.36     0  01:52      1.84    1.88    1.00
  YS02001602YS02001605 CONDUIT    519.50     0  01:52      1.84   10.99    1.00
  YS02001605YS02001607 CONDUIT    519.62     0  01:52      1.84    2.85    1.00
  YS02001607YS02001610 CONDUIT    524.59     0  01:52      0.67    0.50    1.00
  YS02001610YS02001613 CONDUIT    529.22     0  01:52      0.67    0.61    1.00
  YS02001613YS02001616 CONDUIT    530.25     0  01:52      0.68    0.45    1.00
  YS02001616YS02001619 CONDUIT    491.60     0  01:53      0.67    0.85    1.00
  YS02001619YS02001622 CONDUIT    951.92     0  02:02      1.21    1.40    1.00
  YS02001622YS02001625 CONDUIT    952.40     0  02:02      1.21    0.51    1.00
  YS02001625YS02001629 CONDUIT    920.98     0  01:53      1.19    0.44    1.00
  YS02001629YS02163301 CONDUIT    918.23     0  01:54      1.17    1.13    1.00
  YS02001633YS02163601 CONDUIT   1358.69     0  01:55      1.73    1.43    1.00
  YS02001641YS02001644 CONDUIT   1357.78     0  01:55      1.73    4.39    1.00
  YS02001644YS02001647 CONDUIT   1756.38     0  01:55      2.25    1.03    1.00
  YS02001647YS02001649 CONDUIT   1750.07     0  01:55      2.31    0.92    1.00
  YS02001649YS02001757 CONDUIT   1918.94     0  01:55      2.46    1.16    1.00
  YS02001652YS02001649 CONDUIT    920.35     0  02:02      1.17    0.46    1.00
  YS02001655YS02001652 CONDUIT    920.60     0  02:02      1.34    0.45    1.00
  YS02001658YS02001655 CONDUIT    921.10     0  02:02      1.90    0.39    1.00
  YS02001661YS02001658 CONDUIT    920.28     0  02:02      2.29    0.36    1.00
  YS02001664YS02001661 CONDUIT    918.56     0  02:02      2.26    0.29    0.80
  YS02001745YS02001748 CONDUIT    585.30     0  02:01      2.15    0.23    0.92
  YS02001748YS02001751 CONDUIT    585.69     0  02:01      1.69    0.30    1.00
  YS02001751YS02001754 CONDUIT    585.96     0  02:01      1.46    0.28    1.00
  YS02001754YS02001757 CONDUIT    585.86     0  02:02      0.75    0.24    1.00
  YS02001757CaochengTiaoxuchi CONDUIT   3203.55     0  01:59      4.08    1.39    1.00
  YS02001759YS02001757 CONDUIT   1335.92     0  02:01      1.70    0.95    1.00
  YS02001762YS02001759 CONDUIT    692.85     0  01:58      0.88    0.80    1.00
  YS02001765YS02001762 CONDUIT    684.42     0  01:57      0.87    0.64    1.00
  YS02001767YS02001765 CONDUIT    686.97     0  01:58      0.87    0.86    1.00
  YS02001770YS02001767 CONDUIT    690.77     0  01:58      0.88    2.74    1.00
  YS02001774YS02001770 CONDUIT    615.33     0  02:02      0.78    0.39    1.00
  YS02001779YS02001774 CONDUIT    616.83     0  02:02      0.79    0.31    1.00
  YS02001783YS02001784 CONDUIT   1166.82     0  02:01      2.32    1.61    1.00
  YS02001784YS02001785 CONDUIT   1168.29     0  02:00      2.32    2.72    1.00
  YS02001786YS02001788 CONDUIT   1169.45     0  02:00      2.49    2.25    0.89
  YS02001788YS02001790 CONDUIT   1178.52     0  02:00      2.72    0.87    0.84
  YS02001790YS02001791 CONDUIT   1294.62     0  01:59      3.44    1.41    0.70
  YS02001791YS02001793 CONDUIT   1258.74     0  02:00      6.46    0.54    0.44
  YS02001793JiankangQianchi CONDUIT   1217.10     0  02:08      2.34    0.10    0.65
  YS02001882YS02001884 CONDUIT     51.65     0  01:54      0.13    0.06    1.00
  YS02001884YS02001887 CONDUIT     75.49     0  01:54      0.10    0.10    1.00
  YS02001887YS02001890 CONDUIT    857.45     0  02:01      1.09    1.47    1.00
  YS02001890YS02001895 CONDUIT    517.70     0  02:03      0.66    0.24    1.00
  YS02001895YS02001898 CONDUIT    517.98     0  02:06      0.66    0.90    1.00
  YS02001898YS02001901 CONDUIT    517.87     0  02:06      0.66    0.33    1.00
  YS02001901YS02001904 CONDUIT    517.56     0  02:06      0.66    0.80    1.00
  YS02001904YS02001907 CONDUIT    518.14     0  02:03      0.66    0.18    1.00
  YS02001907YS02006553 CONDUIT    797.42     0  02:19      0.89    0.94    1.00
  YS02001910YS02001907 CONDUIT   1477.18     0  02:02      1.88    0.83    1.00
  YS02001915YS02001910 CONDUIT   1477.01     0  02:02      1.88    0.73    1.00
  YS02001918YS02001915 CONDUIT    495.37     0  02:02      0.63    0.27    1.00
  YS02001920YS02001918 CONDUIT    495.79     0  02:02      0.64    0.48    1.00
  YS02001923YS02001920 CONDUIT    493.03     0  02:02      0.69    0.22    1.00
  YS02001926YS02001923 CONDUIT    491.95     0  02:02      0.96    0.70    1.00
  YS02001929YS02001926 CONDUIT    491.38     0  02:02      1.12    0.23    1.00
  YS02006553YS02006556 CONDUIT    796.39     0  02:21      1.01    0.68    1.00
  YS02006556YS02006558 CONDUIT    798.31     0  02:21      1.02    0.63    1.00
  YS02006558YS02006561 CONDUIT   1177.85     0  01:56      4.17    2.60    1.00
  YS02006561YS02001783 CONDUIT   1166.34     0  02:01      2.32    0.60    1.00
  YS02163301YS02001633 CONDUIT    918.93     0  01:54      1.17    0.86    1.00
  YS02163601YS02164001 CONDUIT   1357.35     0  01:55      1.73    1.20    1.00
  YS02164001YS02001641 CONDUIT   1358.21     0  01:55      1.73    1.85    1.00
  CC-R1                PUMP       683.00     0  00:00              1.00
  CC-R2                PUMP       683.00     0  00:00              1.00
  CC-S1                PUMP       200.00     0  00:00              1.00
  CC-S2                PUMP       200.00     0  00:00              1.00
  JK-R1                PUMP      1000.00     0  00:00              1.00
  JK-R2                PUMP      1000.00     0  00:00              1.00
  JK-S                 PUMP       300.00     0  00:00              1.00
  
  
  ***************************
  Flow Classification Summary
  ***************************
  
  -------------------------------------------------------------------------------------
                      Adjusted    ---------- Fraction of Time in Flow Class ---------- 
                       /Actual         Up    Down  Sub   Sup   Up    Down  Norm  Inlet 
  Conduit               Length    Dry  Dry   Dry   Crit  Crit  Crit  Crit  Ltd   Ctrl  
  -------------------------------------------------------------------------------------
  1                       1.00   0.00  0.00  0.00  0.00  1.00  0.00  0.00  0.43  0.00
  WS02003060WS02003069    1.00   0.00  0.00  0.00  0.96  0.04  0.00  0.00  0.63  0.00
  WS02003066WSF200        1.00   0.13  0.00  0.00  0.00  0.87  0.00  0.00  0.74  0.00
  WS02003067WS02003066    1.00   0.10  0.02  0.00  0.88  0.00  0.00  0.00  0.00  0.00
  WS02003069WS02003072    1.00   0.00  0.00  0.00  0.99  0.01  0.00  0.00  0.71  0.00
  WS02003072WS02003073    1.00   0.00  0.00  0.00  0.00  0.00  0.00  1.00  0.00  0.00
  WS02004401WS02004402    1.00   0.02  0.00  0.00  0.98  0.00  0.00  0.00  0.00  0.00
  WS02004402WS02004403    1.00   0.02  0.00  0.00  0.97  0.00  0.00  0.00  0.00  0.00
  WS02004403WS02004404    1.00   0.00  0.03  0.00  0.97  0.00  0.00  0.00  0.00  0.00
  WS02004404WS02004405    1.00   0.00  0.00  0.00  1.00  0.00  0.00  0.00  0.01  0.00
  WS02004405WS02004406    1.00   0.00  0.00  0.00  1.00  0.00  0.00  0.00  0.00  0.00
  WS02004406WS02004407    1.00   0.00  0.05  0.00  0.95  0.00  0.00  0.00  0.00  0.00
  WS02004407WS02004409    1.00   0.05  0.00  0.00  0.94  0.01  0.00  0.00  0.94  0.00
  WS02004409WS02004410    1.00   0.05  0.00  0.00  0.95  0.00  0.00  0.00  0.03  0.00
  WS02004410WS02004411    1.00   0.05  0.00  0.00  0.95  0.00  0.00  0.00  0.01  0.00
  WS02004411WS02004412    1.00   0.05  0.00  0.00  0.95  0.00  0.00  0.00  0.00  0.00
  WS02004412WS02004413    1.00   0.05  0.00  0.00  0.94  0.00  0.00  0.00  0.01  0.00
  WS02004413WS02003067    1.00   0.06  0.04  0.00  0.00  0.00  0.90  0.00  0.00  0.00
  WS02006109WS02006110    1.00   0.00  0.01  0.00  0.98  0.00  0.01  0.00  0.00  0.00
  WS02006110WS02006113    1.00   0.01  0.01  0.00  0.98  0.00  0.00  0.00  0.00  0.00
  WS02006111WS02006112    1.00   0.02  0.00  0.00  0.98  0.00  0.00  0.00  0.98  0.00
  WS02006112WS02006115    1.00   0.02  0.00  0.00  0.97  0.00  0.00  0.00  0.00  0.00
  WS02006113WS02006111    1.00   0.02  0.00  0.00  0.00  0.98  0.00  0.00  0.21  0.00
  WS02006115WS02006116    1.00   0.02  0.00  0.00  0.97  0.00  0.00  0.01  0.00  0.00
  WS02006116WS02004401    1.00   0.02  0.00  0.00  0.98  0.00  0.00  0.00  0.00  0.00
  WS02006228WS02006109    1.00   0.00  0.00  0.00  1.00  0.00  0.00  0.00  0.01  0.00
  WS02006229WS02006228    1.00   0.00  0.00  0.00  0.99  0.00  0.00  0.01  0.00  0.00
  WS02006230WS02006229    1.00   0.00  0.00  0.00  0.99  0.00  0.00  0.01  0.00  0.00
  WS02006231WS02006230    1.00   0.00  0.00  0.00  0.28  0.00  0.72  0.00  0.00  0.00
  WS02006232WS02006231    1.00   0.00  0.00  0.00  0.98  0.00  0.01  0.00  0.00  0.00
  WS02006234WS02006232    1.00   0.00  0.00  0.00  1.00  0.00  0.00  0.00  0.06  0.00
  WS02006235WS02006234    1.00   0.00  0.00  0.00  0.91  0.00  0.09  0.00  0.00  0.00
  WS02006238WS02006235    1.00   0.00  0.00  0.00  1.00  0.00  0.00  0.00  0.00  0.00
  WS02006239WS02006238    1.00   0.00  0.00  0.00  1.00  0.00  0.00  0.00  0.13  0.00
  WS02006240WS02006239    1.00   0.00  0.00  0.00  0.77  0.00  0.00  0.23  0.04  0.00
  WS02006242WS02006240    1.00   0.00  0.00  0.00  0.98  0.00  0.02  0.00  0.00  0.00
  WS02006243WS02006242    1.00   0.00  0.00  0.00  0.98  0.00  0.00  0.02  0.41  0.00
  WS02006245WS02006243    1.00   0.00  0.00  0.00  0.88  0.00  0.00  0.12  0.01  0.00
  WS02006247WS02006245    1.00   0.00  0.00  0.00  0.98  0.00  0.00  0.02  0.00  0.00
  WS02006248WS02006247    1.00   0.00  0.00  0.00  0.98  0.00  0.00  0.02  0.35  0.00
  WS02006249WS02006248    1.00   0.00  0.00  0.00  0.58  0.00  0.42  0.00  0.00  0.00
  WS02006251WS02006249    1.00   0.00  0.00  0.00  0.99  0.01  0.00  0.00  0.44  0.00
  WS02006252WS02006251    1.00   0.06  0.43  0.00  0.13  0.00  0.38  0.00  0.00  0.00
  WS02006256WS02006235    1.00   0.00  0.00  0.00  1.00  0.00  0.00  0.00  0.00  0.00
  WSF200WS02003060        1.00   0.00  0.13  0.00  0.08  0.79  0.00  0.00  0.45  0.00
  YS02001580YS02001583    1.00   0.23  0.57  0.00  0.20  0.00  0.00  0.00  0.66  0.00
  YS02001583YS02001586    1.00   0.42  0.33  0.00  0.26  0.00  0.00  0.00  0.66  0.00
  YS02001586YS02001590    1.00   0.13  0.00  0.00  0.43  0.04  0.00  0.40  0.36  0.00
  YS02001590YS02001593    1.00   0.13  0.01  0.00  0.13  0.00  0.74  0.00  0.00  0.00
  YS02001593YS02001596    1.00   0.13  0.00  0.00  0.14  0.01  0.00  0.71  0.02  0.00
  YS02001596YS02001600    1.00   0.14  0.00  0.00  0.20  0.01  0.00  0.65  0.04  0.00
  YS02001600YS02001601    1.00   0.13  0.01  0.00  0.86  0.00  0.00  0.00  0.60  0.00
  YS02001601YS02001602    1.00   0.13  0.01  0.00  0.87  0.00  0.00  0.00  0.00  0.00
  YS02001602YS02001605    1.00   0.13  0.00  0.00  0.86  0.00  0.00  0.00  0.00  0.00
  YS02001605YS02001607    1.00   0.14  0.00  0.00  0.86  0.00  0.00  0.00  0.00  0.00
  YS02001607YS02001610    1.00   0.13  0.01  0.00  0.86  0.00  0.00  0.00  0.01  0.00
  YS02001610YS02001613    1.00   0.13  0.00  0.00  0.87  0.00  0.00  0.00  0.00  0.00
  YS02001613YS02001616    1.00   0.13  0.00  0.00  0.87  0.00  0.00  0.00  0.00  0.00
  YS02001616YS02001619    1.00   0.13  0.00  0.00  0.87  0.00  0.00  0.00  0.00  0.00
  YS02001619YS02001622    1.00   0.13  0.00  0.00  0.87  0.00  0.00  0.00  0.29  0.00
  YS02001622YS02001625    1.00   0.13  0.00  0.00  0.87  0.00  0.00  0.00  0.04  0.00
  YS02001625YS02001629    1.00   0.13  0.05  0.00  0.17  0.00  0.65  0.00  0.00  0.00
  YS02001629YS02163301    1.00   0.15  0.01  0.00  0.84  0.00  0.00  0.00  0.00  0.00
  YS02001633YS02163601    1.00   0.00  0.01  0.00  0.99  0.00  0.00  0.00  0.15  0.00
  YS02001641YS02001644    1.00   0.00  0.01  0.00  0.99  0.00  0.00  0.00  0.00  0.00
  YS02001644YS02001647    1.00   0.00  0.17  0.00  0.83  0.00  0.00  0.00  0.00  0.00
  YS02001647YS02001649    1.00   0.00  0.17  0.00  0.56  0.27  0.00  0.00  0.55  0.00
  YS02001649YS02001757    1.00   0.00  0.00  0.00  0.87  0.13  0.00  0.00  0.42  0.00
  YS02001652YS02001649    1.00   0.00  0.00  0.00  0.97  0.03  0.00  0.00  0.73  0.00
  YS02001655YS02001652    1.00   0.00  0.00  0.00  0.20  0.01  0.00  0.79  0.04  0.00
  YS02001658YS02001655    1.00   0.00  0.14  0.00  0.68  0.18  0.00  0.00  0.66  0.00
  YS02001661YS02001658    1.00   0.14  0.00  0.00  0.52  0.34  0.00  0.00  0.68  0.00
  YS02001664YS02001661    1.00   0.13  0.00  0.00  0.78  0.09  0.00  0.00  0.85  0.00
  YS02001745YS02001748    1.00   0.00  0.00  0.00  0.12  0.01  0.00  0.88  0.05  0.00
  YS02001748YS02001751    1.00   0.00  0.00  0.00  0.84  0.16  0.00  0.00  0.76  0.00
  YS02001751YS02001754    1.00   0.00  0.00  0.00  0.18  0.00  0.00  0.82  0.03  0.00
  YS02001754YS02001757    1.00   0.00  0.00  0.00  1.00  0.00  0.00  0.00  0.79  0.00
  YS02001757CaochengTiaoxuchi    1.00   0.00  0.00  0.00  1.00  0.00  0.00  0.00  0.63  0.00
  YS02001759YS02001757    1.00   0.00  0.00  0.00  1.00  0.00  0.00  0.00  0.51  0.00
  YS02001762YS02001759    1.00   0.00  0.00  0.00  1.00  0.00  0.00  0.00  0.06  0.00
  YS02001765YS02001762    1.00   0.00  0.00  0.00  1.00  0.00  0.00  0.00  0.65  0.00
  YS02001767YS02001765    1.00   0.00  0.00  0.00  1.00  0.00  0.00  0.00  0.01  0.00
  YS02001770YS02001767    1.00   0.00  0.00  0.00  1.00  0.00  0.00  0.00  0.00  0.00
  YS02001774YS02001770    1.00   0.00  0.13  0.00  0.70  0.00  0.17  0.00  0.03  0.00
  YS02001779YS02001774    1.00   0.00  0.00  0.00  1.00  0.00  0.00  0.00  0.76  0.00
  YS02001783YS02001784    1.00   0.00  0.18  0.00  0.82  0.00  0.00  0.00  0.55  0.00
  YS02001784YS02001785    1.00   0.00  0.00  0.00  1.00  0.00  0.00  0.00  0.17  0.00
  YS02001786YS02001788    1.00   0.00  0.00  0.00  0.79  0.21  0.00  0.00  0.00  0.00
  YS02001788YS02001790    1.00   0.00  0.00  0.00  0.21  0.79  0.00  0.00  0.80  0.00
  YS02001790YS02001791    1.00   0.00  0.00  0.00  0.01  0.99  0.00  0.00  0.16  0.00
  YS02001791YS02001793    1.00   0.00  0.00  0.00  0.00  1.00  0.00  0.00  0.01  0.00
  YS02001793JiankangQianchi    1.00   0.00  0.00  0.00  0.99  0.01  0.00  0.00  0.94  0.00
  YS02001882YS02001884    1.00   0.15  0.01  0.00  0.84  0.00  0.00  0.00  0.00  0.00
  YS02001884YS02001887    1.00   0.06  0.05  0.00  0.89  0.00  0.00  0.00  0.00  0.00
  YS02001887YS02001890    1.00   0.00  0.00  0.00  0.97  0.00  0.03  0.00  0.00  0.00
  YS02001890YS02001895    1.00   0.00  0.16  0.00  0.84  0.00  0.00  0.00  0.00  0.00
  YS02001895YS02001898    1.00   0.16  0.00  0.00  0.82  0.00  0.02  0.00  0.00  0.00
  YS02001898YS02001901    1.00   0.17  0.00  0.00  0.83  0.00  0.00  0.00  0.01  0.00
  YS02001901YS02001904    1.00   0.16  0.00  0.00  0.84  0.00  0.00  0.00  0.00  0.00
  YS02001904YS02001907    1.00   0.00  0.16  0.00  0.84  0.00  0.00  0.00  0.00  0.00
  YS02001907YS02006553    1.00   0.00  0.02  0.00  0.98  0.00  0.00  0.00  0.00  0.00
  YS02001910YS02001907    1.00   0.00  0.00  0.00  0.97  0.00  0.00  0.03  0.12  0.00
  YS02001915YS02001910    1.00   0.00  0.00  0.00  0.97  0.03  0.00  0.00  0.16  0.00
  YS02001918YS02001915    1.00   0.00  0.01  0.00  0.98  0.02  0.00  0.00  0.74  0.00
  YS02001920YS02001918    1.00   0.00  0.01  0.00  0.99  0.00  0.00  0.00  0.00  0.00
  YS02001923YS02001920    1.00   0.00  0.00  0.00  1.00  0.00  0.00  0.00  0.92  0.00
  YS02001926YS02001923    1.00   0.00  0.07  0.00  0.06  0.00  0.86  0.00  0.00  0.00
  YS02001929YS02001926    1.00   0.00  0.13  0.00  0.87  0.00  0.00  0.00  0.82  0.00
  YS02006553YS02006556    1.00   0.01  0.00  0.00  0.99  0.00  0.00  0.00  0.03  0.00
  YS02006556YS02006558    1.00   0.00  0.00  0.00  1.00  0.00  0.00  0.00  0.00  0.00
  YS02006558YS02006561    1.00   0.18  0.00  0.00  0.06  0.76  0.00  0.00  0.19  0.00
  YS02006561YS02001783    1.00   0.18  0.00  0.00  0.09  0.73  0.00  0.00  0.68  0.00
  YS02163301YS02001633    1.00   0.00  0.15  0.00  0.85  0.00  0.00  0.00  0.00  0.00
  YS02163601YS02164001    1.00   0.00  0.08  0.00  0.92  0.00  0.00  0.00  0.00  0.00
  YS02164001YS02001641    1.00   0.01  0.07  0.00  0.92  0.00  0.00  0.00  0.05  0.00
  
  
  *************************
  Conduit Surcharge Summary
  *************************
  
  ----------------------------------------------------------------------------
                                                           Hours        Hours 
                         --------- Hours Full --------   Above Full   Capacity
  Conduit                Both Ends  Upstream  Dnstream   Normal Flow   Limited
  ----------------------------------------------------------------------------
  WS02003072WS02003073        0.01      0.01      0.01      1.46         0.01
  WS02004404WS02004405        0.01      0.01      0.01      4.33         0.01
  WS02004405WS02004406        0.01      0.01      0.01      0.70         0.01
  WS02006109WS02006110        0.76      0.76      2.10      0.91         0.01
  WS02006110WS02006113        0.01      0.01      2.09      0.01         0.01
  WS02006111WS02006112        0.01      0.01      2.21      0.01         0.01
  WS02006112WS02006115        0.01      0.01      0.85      0.01         0.01
  WS02006228WS02006109        2.07      2.09      2.07      2.74         2.07
  WS02006229WS02006228        2.07      2.08      2.07      2.34         2.05
  WS02006230WS02006229        2.14      2.25      2.14      5.18         2.14
  WS02006231WS02006230        0.76      0.76      1.02      4.65         0.01
  WS02006232WS02006231        0.95      0.95      2.10      1.03         0.01
  WS02006234WS02006232        2.01      2.01      2.10      1.01         1.00
  WS02006235WS02006234        1.37      1.38      2.02      4.34         0.02
  WS02006238WS02006235        2.05      2.05      2.10      0.01         0.01
  WS02006239WS02006238        2.07      2.09      2.07      2.28         1.88
  WS02006240WS02006239        2.05      2.07      2.05      2.31         1.79
  WS02006242WS02006240        2.07      2.07      2.15      2.47         0.01
  WS02006243WS02006242        2.07      2.07      2.10      0.01         0.06
  WS02006245WS02006243        2.06      2.06      2.06      1.55         1.27
  WS02006247WS02006245        2.06      2.06      2.06      3.98         2.04
  WS02006248WS02006247        2.05      2.05      2.06      0.01         0.07
  WS02006249WS02006248        2.05      2.05      2.05      3.93         0.01
  WS02006251WS02006249        2.05      2.05      2.05      2.46         1.96
  WS02006252WS02006251        2.52      2.52      2.53      2.53         0.01
  WS02006256WS02006235        4.43      4.49      6.87      1.30         0.01
  YS02001580YS02001583        0.65      0.65      0.71      0.01         0.01
  YS02001583YS02001586        0.66      0.66      0.80      0.01         0.01
  YS02001586YS02001590        0.81      0.81      0.88      0.01         0.01
  YS02001590YS02001593        0.88      0.88      0.90      0.92         0.01
  YS02001593YS02001596        0.89      0.89      1.00      0.01         0.01
  YS02001596YS02001600        1.05      1.05      1.16      0.01         0.01
  YS02001600YS02001601        1.23      1.23      1.48      0.01         0.01
  YS02001601YS02001602        1.39      1.39      1.52      1.14         0.01
  YS02001602YS02001605        1.35      1.35      1.39      2.29         0.01
  YS02001605YS02001607        1.31      1.35      1.31      1.45         1.31
  YS02001607YS02001610        0.88      0.88      0.91      0.01         0.01
  YS02001610YS02001613        0.87      0.87      0.91      0.01         0.01
  YS02001613YS02001616        0.83      0.83      0.87      0.01         0.01
  YS02001616YS02001619        0.82      0.82      0.83      0.01         0.02
  YS02001619YS02001622        0.82      0.82      0.82      0.86         0.77
  YS02001622YS02001625        0.82      0.82      1.00      0.01         0.01
  YS02001625YS02001629        0.77      0.77      1.00      0.01         0.01
  YS02001629YS02163301        1.00      1.00      1.02      0.05         0.13
  YS02001633YS02163601        1.04      1.04      1.08      0.28         0.27
  YS02001641YS02001644        0.96      0.99      0.96      1.55         0.94
  YS02001644YS02001647        0.75      0.75      0.96      0.02         0.01
  YS02001647YS02001649        0.75      0.75      0.89      0.01         0.01
  YS02001649YS02001757        0.89      0.89      0.96      0.06         0.03
  YS02001652YS02001649        0.71      0.71      0.89      0.01         0.01
  YS02001655YS02001652        0.51      0.51      0.69      0.01         0.01
  YS02001658YS02001655        0.27      0.27      0.51      0.01         0.01
  YS02001661YS02001658        0.04      0.04      0.27      0.01         0.01
  YS02001664YS02001661        0.01      0.01      0.12      0.01         0.01
  YS02001745YS02001748        0.01      0.01      0.21      0.01         0.01
  YS02001748YS02001751        0.24      0.24      0.38      0.01         0.01
  YS02001751YS02001754        0.38      0.38      0.59      0.01         0.01
  YS02001754YS02001757        0.64      0.64      0.96      0.01         0.01
  YS02001757CaochengTiaoxuchi        0.96      0.96      2.06      0.35         0.34
  YS02001759YS02001757        0.87      0.87      0.96      0.01         0.01
  YS02001762YS02001759        0.83      0.83      0.87      0.01         0.02
  YS02001765YS02001762        0.79      0.79      0.83      0.01         0.01
  YS02001767YS02001765        0.76      0.76      0.79      0.01         0.02
  YS02001770YS02001767        0.75      0.75      0.76      0.56         0.50
  YS02001774YS02001770        0.72      0.72      0.82      0.01         0.01
  YS02001779YS02001774        0.58      0.58      0.82      0.01         0.01
  YS02001783YS02001784        0.55      0.57      0.55      0.72         0.55
  YS02001784YS02001785        0.44      0.55      0.44      0.97         0.44
  YS02001786YS02001788        0.01      0.44      0.01      0.83         0.01
  YS02001790YS02001791        0.01      0.01      0.01      0.53         0.01
  YS02001793JiankangQianchi        0.01      0.01      7.70      0.01         0.01
  YS02001882YS02001884        0.51      0.51      0.53      0.01         0.01
  YS02001884YS02001887        0.55      0.55      0.56      0.01         0.01
  YS02001887YS02001890        0.57      0.57      0.59      0.13         0.01
  YS02001890YS02001895        0.50      0.50      0.60      0.01         0.01
  YS02001895YS02001898        0.50      0.50      0.50      0.01         0.01
  YS02001898YS02001901        0.51      0.51      0.55      0.01         0.01
  YS02001901YS02001904        0.54      0.54      0.55      0.01         0.01
  YS02001904YS02001907        0.54      0.54      0.81      0.01         0.01
  YS02001907YS02006553        0.98      0.98      1.05      0.01         0.01
  YS02001910YS02001907        0.60      0.60      0.79      0.01         0.01
  YS02001915YS02001910        0.51      0.51      0.60      0.01         0.01
  YS02001918YS02001915        0.42      0.42      0.51      0.01         0.01
  YS02001920YS02001918        0.42      0.42      0.44      0.01         0.01
  YS02001923YS02001920        0.38      0.38      0.44      0.01         0.01
  YS02001926YS02001923        0.12      0.12      0.15      0.01         0.01
  YS02001929YS02001926        0.01      0.01      0.15      0.01         0.01
  YS02006553YS02006556        0.69      0.69      0.80      0.01         0.01
  YS02006556YS02006558        0.75      0.75      0.83      0.01         0.01
  YS02006558YS02006561        0.46      0.68      0.46      0.92         0.46
  YS02006561YS02001783        0.39      0.39      0.57      0.01         0.01
  YS02163301YS02001633        1.02      1.02      1.05      0.01         0.01
  YS02163601YS02164001        0.99      0.99      1.08      0.07         0.01
  YS02164001YS02001641        0.99      0.99      0.99      0.70         0.64
  
  
  ***************
  Pumping Summary
  ***************
  
  ---------------------------------------------------------------------------------------------------------
                                                  Min       Avg       Max     Total     Power    % Time Off
                        Percent   Number of      Flow      Flow      Flow    Volume     Usage    Pump Curve
  Pump                 Utilized   Start-Ups       LPS       LPS       LPS  10^6 ltr     Kw-hr    Low   High
  ---------------------------------------------------------------------------------------------------------
  CC-R1                   18.09           2      0.00    683.00    683.00     3.558     67.92    0.0    5.8
  CC-R2                   15.07           2      0.00    683.00    683.00     2.965     57.00    0.0    6.9
  CC-S1                   46.62           6      0.00    200.00    200.00     2.685     15.56    0.0    0.0
  CC-S2                   35.73           7      0.00    200.00    200.00     2.058     11.90    0.0    0.0
  JK-R1                    7.20          11      0.00   1000.00   1000.00     2.073     24.71    0.0    0.0
  JK-R2                    2.25           3      0.00   1000.00   1000.00     0.647      6.55    0.0    0.0
  JK-S                    16.26          21      0.00    300.00    300.00     1.405     18.36    0.0    0.0
  

  Analysis begun on:  Mon Jan 13 10:11:17 2025
  Analysis ended on:  Mon Jan 13 10:11:19 2025
  Total elapsed time: 00:00:02