
  EPA STORM WATER MANAGEMENT MODEL - VERSION 5.2 (Build 5.2.4)
  PYSWMM TOOLKIT API - VERSION v1.0 (2023-11-27)
  ------------------------------------------------------------

  WARNING 04: minimum elevation drop used for Conduit WS02004404WS02004405
  WARNING 03: negative offset ignored for Link YS02001904YS02001907
  
  ****************
  Analysis Options
  ****************
  Flow Units ............... LPS
  Process Models:
    Rainfall/Runoff ........ YES
    RDII ................... NO
    Snowmelt ............... NO
    Groundwater ............ NO
    Flow Routing ........... YES
    Ponding Allowed ........ NO
    Water Quality .......... NO
  Infiltration Method ...... HORTON
  Flow Routing Method ...... DYNWAVE
  Surcharge Method ......... EXTRAN
  Starting Date ............ 08/28/2015 08:00:00
  Ending Date .............. 08/28/2015 16:00:00
  Antecedent Dry Days ...... 8.0
  Report Time Step ......... 00:01:00
  Wet Time Step ............ 00:01:00
  Dry Time Step ............ 00:01:00
  Routing Time Step ........ 30.00 sec
  Variable Time Step ....... YES
  Maximum Trials ........... 8
  Number of Threads ........ 4
  Head Tolerance ........... 0.001500 m
  
  
  **************************        Volume         Depth
  Runoff Quantity Continuity     hectare-m            mm
  **************************     ---------       -------
  Total Precipitation ......         2.669        80.469
  Evaporation Loss .........         0.000         0.000
  Infiltration Loss ........         0.102         3.079
  Surface Runoff ...........         2.535        76.411
  Final Storage ............         0.033         0.996
  Continuity Error (%) .....        -0.020
  
  
  **************************        Volume        Volume
  Flow Routing Continuity        hectare-m      10^6 ltr
  **************************     ---------     ---------
  Dry Weather Inflow .......         0.025         0.251
  Wet Weather Inflow .......         2.535        25.346
  Groundwater Inflow .......         0.000         0.000
  RDII Inflow ..............         0.000         0.000
  External Inflow ..........         0.083         0.834
  External Outflow .........         1.773        17.734
  Flooding Loss ............         0.872         8.723
  Evaporation Loss .........         0.000         0.000
  Exfiltration Loss ........         0.000         0.000
  Initial Stored Volume ....         0.243         2.431
  Final Stored Volume ......         0.245         2.454
  Continuity Error (%) .....        -0.168
  
  
  *************************
  Highest Continuity Errors
  *************************
  Node YS02001583 (-9.93%)
  Node YS02001884 (4.83%)
  
  
  ***************************
  Time-Step Critical Elements
  ***************************
  Link WS02006252WS02006251 (47.97%)
  Link WS02006238WS02006235 (13.24%)
  Link YS02001791YS02001793 (7.85%)
  Link WS02003066WSF200 (7.38%)
  Link WS02006235WS02006234 (7.11%)
  
  
  ********************************
  Highest Flow Instability Indexes
  ********************************
  Link WS02006113WS02006111 (41)
  Link WS02006111WS02006112 (24)
  Link WS02006252WS02006251 (16)
  Link WS02006238WS02006235 (15)
  Link WS02006256WS02006235 (14)
  
  
  *********************************
  Most Frequent Nonconverging Nodes
  *********************************
  Node CC-1 (13.02%)
  Node CC-2 (13.02%)
  Node JK-1 (13.02%)
  Node JK-2 (13.02%)
  Node WSC (13.02%)
  
  
  *************************
  Routing Time Step Summary
  *************************
  Minimum Time Step           :     0.00 sec
  Average Time Step           :     1.81 sec
  Maximum Time Step           :     7.04 sec
  % of Time in Steady State   :     0.00
  Average Iterations per Step :     3.15
  % of Steps Not Converging   :    13.02
  Time Step Frequencies       :
     30.000 - 13.228 sec      :     0.00 %
     13.228 -  5.833 sec      :     3.02 %
      5.833 -  2.572 sec      :    21.81 %
      2.572 -  1.134 sec      :    21.90 %
      1.134 -  0.500 sec      :    53.27 %
  
  
  ***************************
  Subcatchment Runoff Summary
  ***************************
  
  ------------------------------------------------------------------------------------------------------------------------------
                            Total      Total      Total      Total     Imperv       Perv      Total       Total     Peak  Runoff
                           Precip      Runon       Evap      Infil     Runoff     Runoff     Runoff      Runoff   Runoff   Coeff
  Subcatchment                 mm         mm         mm         mm         mm         mm         mm    10^6 ltr      LPS
  ------------------------------------------------------------------------------------------------------------------------------
  sub60                     80.47       0.00       0.00       1.87      69.61       7.79      77.40        1.02   566.00   0.962
  sub61                     80.47       0.00       0.00       2.71      65.66      10.98      76.64        1.41   782.16   0.952
  sub62                     80.47       0.00       0.00       1.25      72.75       5.19      77.94        2.14  1102.98   0.969
  sub63                     80.47       0.00       0.00       4.97      56.17      18.37      74.54        1.69   865.12   0.926
  sub64                     80.47       0.00       0.00       2.52      67.19       9.56      76.75        1.84   896.88   0.954
  sub65                     80.47       0.00       0.00       2.18      68.76       8.29      77.04        2.12  1002.26   0.957
  sub66                     80.47       0.00       0.00       6.07      56.06      17.26      73.32        3.42  1307.90   0.911
  sub67                     80.47       0.00       0.00       1.20      72.79       5.24      78.03        1.45   852.11   0.970
  sub68                     80.47       0.00       0.00       2.24      68.02       9.03      77.05        2.12  1129.39   0.957
  sub69                     80.47       0.00       0.00       2.00      68.29      10.07      78.36        2.90  1339.99   0.974
  sub70                     80.47       0.00       0.00       6.56      52.95      20.80      73.75        2.13   739.79   0.917
  sub71                     80.47       0.00       0.00       1.28      72.71       5.16      77.87        2.04   972.88   0.968
  sub72                     80.47       0.00       0.00       1.13      73.43       4.50      77.93        1.07   470.84   0.968
  
  
  ******************
  Node Depth Summary
  ******************
  
  ---------------------------------------------------------------------------------
                                 Average  Maximum  Maximum  Time of Max    Reported
                                   Depth    Depth      HGL   Occurrence   Max Depth
  Node                 Type       Meters   Meters   Meters  days hr:min      Meters
  ---------------------------------------------------------------------------------
  WS02003060           JUNCTION     0.23     0.38     5.32     0  02:06        0.38
  WS02003066           JUNCTION     0.19     0.30     5.85     0  02:02        0.30
  WS02003067           JUNCTION     0.50     0.70     6.02     0  02:02        0.70
  WS02003069           JUNCTION     0.26     0.43     5.01     0  02:03        0.43
  WS02003072           JUNCTION     0.32     0.50     4.87     0  02:04        0.50
  WS02003073           JUNCTION     0.18     0.30     4.36     0  02:04        0.30
  WS02004401           JUNCTION     0.57     0.85     6.85     0  01:59        0.85
  WS02004402           JUNCTION     0.61     0.88     6.84     0  02:00        0.88
  WS02004403           JUNCTION     0.63     0.89     6.82     0  01:59        0.89
  WS02004404           JUNCTION     0.71     0.96     6.81     0  02:00        0.96
  WS02004405           JUNCTION     0.71     0.96     6.81     0  02:00        0.96
  WS02004406           JUNCTION     0.72     0.96     6.79     0  02:00        0.96
  WS02004407           JUNCTION     0.17     0.30     6.61     0  02:00        0.30
  WS02004409           JUNCTION     0.38     0.67     6.44     0  02:01        0.67
  WS02004410           JUNCTION     0.41     0.68     6.40     0  02:01        0.68
  WS02004411           JUNCTION     0.43     0.69     6.37     0  02:01        0.69
  WS02004412           JUNCTION     0.45     0.70     6.34     0  02:02        0.70
  WS02004413           JUNCTION     0.61     0.86     6.33     0  02:02        0.86
  WS02006109           JUNCTION     0.63     1.17     7.79     0  02:26        1.14
  WS02006110           JUNCTION     0.63     1.34     7.93     0  02:26        1.32
  WS02006111           JUNCTION     0.17     0.29     7.00     0  02:58        0.29
  WS02006112           JUNCTION     0.73     1.08     6.97     0  02:27        1.05
  WS02006113           JUNCTION     0.26     0.46     7.35     0  03:59        0.46
  WS02006115           JUNCTION     0.46     0.75     6.89     0  03:05        0.75
  WS02006116           JUNCTION     0.54     0.83     6.87     0  01:59        0.83
  WS02006228           JUNCTION     0.62     1.24     7.89     0  02:56        1.11
  WS02006229           JUNCTION     0.59     1.28     7.97     0  02:56        1.09
  WS02006230           JUNCTION     0.58     1.52     8.27     0  02:56        1.20
  WS02006231           JUNCTION     0.40     1.32     8.45     0  02:35        0.96
  WS02006232           JUNCTION     0.53     1.59     8.63     0  01:45        1.30
  WS02006234           JUNCTION     0.46     1.66     8.82     0  02:05        1.54
  WS02006235           JUNCTION     0.50     1.78     8.94     0  02:56        1.78
  WS02006238           JUNCTION     0.53     1.85     9.00     0  02:56        1.85
  WS02006239           JUNCTION     0.49     1.83     9.04     0  02:56        1.83
  WS02006240           JUNCTION     0.46     1.76     9.05     0  01:40        1.72
  WS02006242           JUNCTION     0.54     1.55     8.82     0  01:40        1.55
  WS02006243           JUNCTION     0.45     1.48     8.90     0  03:58        1.41
  WS02006245           JUNCTION     0.46     1.45     8.94     0  03:58        1.31
  WS02006247           JUNCTION     0.49     1.36     8.86     0  03:58        1.26
  WS02006248           JUNCTION     0.45     1.10     8.69     0  01:40        1.10
  WS02006249           JUNCTION     0.49     1.09     8.69     0  01:40        1.09
  WS02006251           JUNCTION     0.49     1.32     8.99     0  02:11        1.30
  WS02006252           JUNCTION     0.36     1.50     9.74     0  00:00        0.84
  WS02006256           JUNCTION     0.93     2.35     9.28     0  00:00        2.35
  WSF200               JUNCTION     0.17     0.29     5.52     0  02:05        0.29
  YS02001580           JUNCTION     0.11     1.05     9.59     0  01:33        0.77
  YS02001583           JUNCTION     0.15     1.14     9.64     0  01:33        0.83
  YS02001586           JUNCTION     0.21     1.13     9.30     0  01:32        1.13
  YS02001590           JUNCTION     0.31     1.40     9.26     0  01:32        1.38
  YS02001593           JUNCTION     0.25     1.35     9.21     0  01:32        1.28
  YS02001596           JUNCTION     0.33     1.71     9.13     0  01:32        1.65
  YS02001600           JUNCTION     0.39     1.87     9.00     0  01:32        1.86
  YS02001601           JUNCTION     0.57     2.06     8.90     0  01:32        2.06
  YS02001602           JUNCTION     0.48     1.87     8.77     0  01:33        1.87
  YS02001605           JUNCTION     0.45     1.78     8.68     0  01:33        1.78
  YS02001607           JUNCTION     0.45     1.65     8.50     0  01:52        1.65
  YS02001610           JUNCTION     0.49     1.68     8.48     0  01:33        1.68
  YS02001613           JUNCTION     0.45     1.68     8.52     0  01:33        1.66
  YS02001616           JUNCTION     0.38     1.61     8.52     0  01:33        1.60
  YS02001619           JUNCTION     0.36     1.61     8.54     0  01:33        1.59
  YS02001622           JUNCTION     0.35     1.62     8.52     0  01:33        1.56
  YS02001625           JUNCTION     0.62     1.78     8.38     0  01:33        1.78
  YS02001629           JUNCTION     0.47     1.85     8.40     0  01:33        1.85
  YS02001633           JUNCTION     0.55     2.07     8.52     0  01:35        2.03
  YS02001641           JUNCTION     0.54     1.99     8.43     0  01:35        1.94
  YS02001644           JUNCTION     0.53     1.92     8.35     0  01:35        1.92
  YS02001647           JUNCTION     0.33     1.81     8.42     0  01:36        1.74
  YS02001649           JUNCTION     0.37     2.05     8.44     0  01:36        1.97
  YS02001652           JUNCTION     0.27     2.16     8.76     0  01:35        1.85
  YS02001655           JUNCTION     0.22     2.20     9.05     0  01:35        1.68
  YS02001658           JUNCTION     0.15     2.30     9.44     0  01:36        1.46
  YS02001661           JUNCTION     0.17     1.88     9.28     0  01:36        1.26
  YS02001664           JUNCTION     0.05     1.24     9.16     0  01:37        0.71
  YS02001745           JUNCTION     0.08     2.35     9.87     0  01:36        0.89
  YS02001748           JUNCTION     0.15     2.27     9.35     0  01:36        1.27
  YS02001751           JUNCTION     0.19     2.20     9.08     0  01:36        1.43
  YS02001754           JUNCTION     0.25     2.20     8.81     0  01:36        1.67
  YS02001757           JUNCTION     0.40     2.21     8.47     0  01:36        1.99
  YS02001759           JUNCTION     0.34     2.21     8.57     0  01:36        1.99
  YS02001762           JUNCTION     0.33     2.15     8.55     0  01:36        1.97
  YS02001765           JUNCTION     0.32     2.10     8.55     0  01:36        1.93
  YS02001767           JUNCTION     0.31     2.03     8.52     0  01:35        1.92
  YS02001770           JUNCTION     0.32     1.95     8.44     0  01:35        1.95
  YS02001774           JUNCTION     0.39     2.05     8.47     0  01:35        1.99
  YS02001779           JUNCTION     0.23     1.68     8.37     0  01:35        1.68
  YS02001783           JUNCTION     0.24     1.70     7.84     0  01:35        1.23
  YS02001784           JUNCTION     0.25     1.39     7.46     0  01:35        1.13
  YS02001786           JUNCTION     0.21     1.07     7.10     0  01:35        0.88
  YS02001788           JUNCTION     0.15     0.62     6.60     0  01:37        0.62
  YS02001790           JUNCTION     0.18     0.73     6.37     0  01:38        0.72
  YS02001791           JUNCTION     0.11     0.44     5.91     0  01:49        0.43
  YS02001793           JUNCTION     0.06     0.30     5.13     0  01:51        0.29
  YS02001882           JUNCTION     0.31     1.83     8.55     0  01:34        1.71
  YS02001884           JUNCTION     0.40     1.93     8.55     0  01:34        1.80
  YS02001887           JUNCTION     0.48     1.98     8.51     0  01:34        1.86
  YS02001890           JUNCTION     0.51     1.81     8.32     0  01:34        1.81
  YS02001895           JUNCTION     0.28     1.75     8.50     0  01:34        1.57
  YS02001898           JUNCTION     0.29     1.77     8.51     0  01:34        1.56
  YS02001901           JUNCTION     0.40     1.87     8.48     0  01:34        1.67
  YS02001904           JUNCTION     0.38     1.75     8.38     0  01:34        1.64
  YS02001907           JUNCTION     0.71     1.96     8.25     0  01:34        1.96
  YS02001910           JUNCTION     0.51     2.04     8.54     0  01:34        1.95
  YS02001915           JUNCTION     0.31     2.00     8.72     0  01:34        1.89
  YS02001918           JUNCTION     0.17     1.81     8.88     0  01:35        1.81
  YS02001920           JUNCTION     0.25     2.12     9.13     0  01:35        2.08
  YS02001923           JUNCTION     0.13     2.03     9.29     0  01:35        2.03
  YS02001926           JUNCTION     0.16     1.90     9.35     0  01:35        1.90
  YS02001929           JUNCTION     0.09     1.78     9.47     0  01:35        1.66
  YS02006553           JUNCTION     0.71     2.11     8.39     0  01:35        1.98
  YS02006556           JUNCTION     0.68     2.23     8.54     0  01:35        1.96
  YS02006558           JUNCTION     0.73     2.31     8.58     0  01:35        2.01
  YS02006561           JUNCTION     0.15     1.55     8.21     0  01:35        0.91
  YS02163301           JUNCTION     0.49     1.94     8.46     0  01:35        1.92
  YS02163601           JUNCTION     0.59     2.08     8.48     0  01:35        2.03
  YS02164001           JUNCTION     0.52     2.00     8.46     0  01:35        1.94
  CC-1                 OUTFALL      0.00     0.00     0.00     0  00:00        0.00
  CC-2                 OUTFALL      0.00     0.00     0.00     0  00:00        0.00
  JK-1                 OUTFALL      0.00     0.00     0.00     0  00:00        0.00
  JK-2                 OUTFALL      0.00     0.00     0.00     0  00:00        0.00
  WSC                  OUTFALL      0.18     0.30     0.97     0  02:05        0.30
  CC-storage           STORAGE      0.99     1.82     7.32     0  02:20        1.82
  JK-storage           STORAGE      3.29     4.24     5.04     0  02:00        4.21
  
  
  *******************
  Node Inflow Summary
  *******************
  
  -------------------------------------------------------------------------------------------------
                                  Maximum  Maximum                  Lateral       Total        Flow
                                  Lateral    Total  Time of Max      Inflow      Inflow     Balance
                                   Inflow   Inflow   Occurrence      Volume      Volume       Error
  Node                 Type           LPS      LPS  days hr:min    10^6 ltr    10^6 ltr     Percent
  -------------------------------------------------------------------------------------------------
  WS02003060           JUNCTION     16.53   552.54     0  02:02       0.476        6.11       0.054
  WS02003066           JUNCTION      0.00   535.80     0  02:02           0        5.64       0.033
  WS02003067           JUNCTION      0.00   535.72     0  02:02           0        5.64       0.084
  WS02003069           JUNCTION      0.32   552.80     0  02:03     0.00922        6.11       0.096
  WS02003072           JUNCTION      0.00   552.57     0  02:04           0        6.11       0.162
  WS02003073           JUNCTION      1.82   554.22     0  02:04      0.0524        6.15       0.144
  WS02004401           JUNCTION      0.00   538.78     0  02:02           0        5.75       0.190
  WS02004402           JUNCTION      0.00   538.16     0  02:02           0        5.74       0.192
  WS02004403           JUNCTION      0.00   537.63     0  02:02           0        5.73       0.186
  WS02004404           JUNCTION      0.16   537.07     0  02:02     0.00467        5.72       0.154
  WS02004405           JUNCTION      0.04   537.37     0  02:02      0.0011        5.72       0.230
  WS02004406           JUNCTION      0.00   537.43     0  02:03           0         5.7       0.379
  WS02004407           JUNCTION      0.00   536.86     0  02:00           0        5.68       0.028
  WS02004409           JUNCTION      0.00   536.70     0  02:00           0        5.68       0.068
  WS02004410           JUNCTION      0.00   536.42     0  02:01           0        5.68       0.102
  WS02004411           JUNCTION      0.00   536.08     0  02:01           0        5.67       0.123
  WS02004412           JUNCTION      0.00   535.98     0  02:01           0        5.66       0.158
  WS02004413           JUNCTION      0.00   535.84     0  02:01           0        5.66       0.270
  WS02006109           JUNCTION      1.23   583.20     0  02:56      0.0354         5.8       0.106
  WS02006110           JUNCTION      0.00   587.03     0  02:56           0        5.79       0.116
  WS02006111           JUNCTION      0.00   565.52     0  03:58           0        5.78       0.013
  WS02006112           JUNCTION      0.00   545.15     0  03:59           0        5.78       0.322
  WS02006113           JUNCTION      0.00   578.60     0  02:56           0        5.78       0.037
  WS02006115           JUNCTION      0.00   552.74     0  02:36           0        5.76       0.125
  WS02006116           JUNCTION      0.00   541.00     0  02:13           0        5.76       0.058
  WS02006228           JUNCTION      0.00   572.96     0  02:56           0        5.76       0.030
  WS02006229           JUNCTION      0.00   568.39     0  02:56           0        5.77       0.137
  WS02006230           JUNCTION     10.28   593.69     0  02:11       0.296        5.78       0.083
  WS02006231           JUNCTION      0.00   579.53     0  02:56           0        5.48      -0.097
  WS02006232           JUNCTION      0.00   582.18     0  02:56           0        5.49       0.249
  WS02006234           JUNCTION      0.00   578.91     0  02:56           0        5.48      -0.206
  WS02006235           JUNCTION      0.00   562.07     0  02:11           0        5.55       0.353
  WS02006238           JUNCTION      0.00   423.89     0  02:50           0        4.52      -0.156
  WS02006239           JUNCTION      0.00   423.14     0  02:50           0        4.48      -0.071
  WS02006240           JUNCTION      0.00   422.21     0  03:20           0        4.46       0.201
  WS02006242           JUNCTION      0.00   425.31     0  03:20           0        4.46       0.378
  WS02006243           JUNCTION      0.00   426.64     0  03:20           0        4.47       0.327
  WS02006245           JUNCTION      0.00   427.15     0  03:20           0         4.5       0.682
  WS02006247           JUNCTION      0.00   428.96     0  03:20           0        4.51       0.253
  WS02006248           JUNCTION      0.00   430.54     0  03:20           0        4.53       0.301
  WS02006249           JUNCTION      0.00   459.02     0  00:00           0        4.85       0.657
  WS02006251           JUNCTION      0.08   405.55     0  02:11     0.00222        4.85       0.140
  WS02006252           JUNCTION      0.00   400.00     0  00:00           0        4.85      -0.039
  WS02006256           JUNCTION      0.00   324.56     0  01:35           0        1.57      -0.766
  WSF200               JUNCTION      0.00   535.83     0  02:02           0        5.63       0.014
  YS02001580           JUNCTION      0.00   147.28     0  01:33           0     0.00474       3.707
  YS02001583           JUNCTION      0.00   248.18     0  01:33           0      0.0153      -9.034
  YS02001586           JUNCTION    739.79   739.79     0  01:43        2.13        2.14       0.074
  YS02001590           JUNCTION      0.00   318.09     0  01:52           0        1.62      -0.023
  YS02001593           JUNCTION      0.00   318.05     0  02:09           0        1.62       0.001
  YS02001596           JUNCTION      0.00   318.19     0  01:52           0        1.62      -0.008
  YS02001600           JUNCTION      0.00   318.10     0  02:13           0        1.62       0.003
  YS02001601           JUNCTION   1339.99  1657.47     0  01:41         2.9        4.52       0.002
  YS02001602           JUNCTION      0.00   568.00     0  01:33           0        2.65       0.013
  YS02001605           JUNCTION      0.00   568.01     0  01:33           0        2.47       0.011
  YS02001607           JUNCTION      0.00   567.89     0  01:33           0        2.47       0.075
  YS02001610           JUNCTION      0.00   720.03     0  01:42           0        2.78       0.071
  YS02001613           JUNCTION      0.00   562.27     0  01:33           0        2.13       0.072
  YS02001616           JUNCTION      0.00   581.75     0  01:33           0        2.13       0.022
  YS02001619           JUNCTION   1307.90  1307.90     0  01:42        3.42        5.24      -0.004
  YS02001622           JUNCTION      0.00   985.42     0  01:33           0        4.93      -0.010
  YS02001625           JUNCTION      0.00  1342.52     0  01:42           0         5.2       0.175
  YS02001629           JUNCTION      0.00   953.27     0  01:33           0        3.83      -0.002
  YS02001633           JUNCTION   1002.46  1431.06     0  01:34        2.13        5.62       0.055
  YS02001641           JUNCTION      0.00  1431.05     0  01:34           0         5.3       0.049
  YS02001644           JUNCTION    896.92  1911.15     0  01:34        1.84        7.13       0.042
  YS02001647           JUNCTION      0.00  1910.97     0  01:34           0        6.57       0.005
  YS02001649           JUNCTION      0.00  2172.94     0  01:35           0        8.27       0.006
  YS02001652           JUNCTION      0.00  1013.21     0  01:37           0         1.7      -0.073
  YS02001655           JUNCTION      0.15  1010.33     0  01:37     0.00443         1.7      -0.124
  YS02001658           JUNCTION      0.00  1008.85     0  01:37           0        1.71      -0.093
  YS02001661           JUNCTION      0.00  1006.33     0  01:37           0        1.71       0.059
  YS02001664           JUNCTION    865.12   865.12     0  01:39        1.69        1.69      -0.036
  YS02001745           JUNCTION    566.00   735.14     0  01:36        1.02        1.02       0.202
  YS02001748           JUNCTION      0.04   686.60     0  01:36      0.0013        1.03      -0.383
  YS02001751           JUNCTION      0.01   634.08     0  01:37    0.000317        1.03       0.027
  YS02001754           JUNCTION      0.26   635.56     0  01:37     0.00749        1.05      -0.176
  YS02001757           JUNCTION      0.00  3480.62     0  01:37           0        12.6       0.022
  YS02001759           JUNCTION    782.20  1534.46     0  01:36        1.41         3.3      -0.012
  YS02001762           JUNCTION      0.00   864.86     0  01:36           0        1.89      -0.013
  YS02001765           JUNCTION      0.00   866.41     0  01:36           0        1.89      -0.003
  YS02001767           JUNCTION      0.54   869.84     0  01:36      0.0154        1.89      -0.008
  YS02001770           JUNCTION   1103.13  1103.13     0  01:40        2.14        2.19      -0.027
  YS02001774           JUNCTION      0.00   553.22     0  01:35           0       0.334       0.242
  YS02001779           JUNCTION      0.01   555.89     0  01:35    0.000144       0.287      -0.229
  YS02001783           JUNCTION      0.00  1166.48     0  01:36           0        4.92       0.004
  YS02001784           JUNCTION      1.06  1167.88     0  01:36      0.0305        4.95       0.009
  YS02001786           JUNCTION      0.06  1167.85     0  01:36     0.00162        4.95       0.014
  YS02001788           JUNCTION      0.07  1168.83     0  01:36     0.00204        4.96       0.006
  YS02001790           JUNCTION      0.15  1179.49     0  01:37     0.00446        4.96       0.021
  YS02001791           JUNCTION      0.00  1295.67     0  01:38           0        4.96      -0.028
  YS02001793           JUNCTION      0.00  1249.22     0  01:41           0        4.96       0.004
  YS02001882           JUNCTION      0.00    75.23     0  01:34           0      0.0131       4.347
  YS02001884           JUNCTION      0.00   130.06     0  01:33           0       0.049       5.075
  YS02001887           JUNCTION    852.56   852.82     0  01:38        1.46         1.5       0.294
  YS02001890           JUNCTION      0.00   853.24     0  01:38           0        1.46       0.336
  YS02001895           JUNCTION      0.00   549.68     0  01:35           0        1.32       0.121
  YS02001898           JUNCTION      0.00   548.94     0  01:35           0        1.32      -0.008
  YS02001901           JUNCTION      0.00   548.21     0  01:35           0        1.32       0.245
  YS02001904           JUNCTION      0.00   547.82     0  01:35           0        1.33       0.200
  YS02001907           JUNCTION      0.00  1970.91     0  01:40           0        4.51       0.379
  YS02001910           JUNCTION      0.00  1455.19     0  01:41           0        3.19       0.222
  YS02001915           JUNCTION    972.89  1454.65     0  01:40        2.04        3.24       0.045
  YS02001918           JUNCTION      0.00   606.21     0  01:35           0        1.24       0.018
  YS02001920           JUNCTION      2.87   628.92     0  01:35      0.0827        1.22       0.077
  YS02001923           JUNCTION      0.04   735.01     0  01:35     0.00109        1.12      -0.054
  YS02001926           JUNCTION      0.05  1066.75     0  01:35      0.0015        1.09      -0.070
  YS02001929           JUNCTION    470.84   894.18     0  01:35        1.07        1.08      -0.059
  YS02006553           JUNCTION      0.00   792.05     0  02:04           0        2.83       0.413
  YS02006556           JUNCTION      0.00   791.71     0  02:04           0        2.84       0.267
  YS02006558           JUNCTION   1130.27  1184.03     0  01:35        2.15        4.96       0.072
  YS02006561           JUNCTION      0.00  1183.78     0  01:35           0        4.92      -0.004
  YS02163301           JUNCTION      0.00   916.09     0  01:34           0        3.82       0.027
  YS02163601           JUNCTION      0.11  1430.89     0  01:34     0.00317        5.29       0.086
  YS02164001           JUNCTION      0.00  1430.84     0  01:34           0        5.29       0.033
  CC-1                 OUTFALL       0.00   683.00     0  00:00           0        4.52       0.000
  CC-2                 OUTFALL       0.00   683.00     0  00:00           0        3.72       0.000
  JK-1                 OUTFALL       0.00  1000.00     0  00:00           0        3.18       0.000
  JK-2                 OUTFALL       0.00  1000.00     0  00:00           0        0.17       0.000
  WSC                  OUTFALL       0.00   554.02     0  02:05           0        6.14       0.000
  CC-storage           STORAGE       0.00  3480.33     0  01:37           0        14.8      -0.145
  JK-storage           STORAGE       0.00  1230.56     0  01:44           0        5.11       0.135
  
  
  **********************
  Node Surcharge Summary
  **********************
  
  Surcharging occurs when water rises above the top of the highest conduit.
  ---------------------------------------------------------------------
                                               Max. Height   Min. Depth
                                   Hours       Above Crown    Below Rim
  Node                 Type      Surcharged         Meters       Meters
  ---------------------------------------------------------------------
  WS02006109           JUNCTION        2.34          0.351        1.469
  WS02006110           JUNCTION        0.96          0.432        1.418
  WS02006112           JUNCTION        1.02          0.085        1.595
  WS02006228           JUNCTION        2.33          0.407        1.793
  WS02006229           JUNCTION        2.34          0.479        1.971
  WS02006230           JUNCTION        0.96          0.444        1.126
  WS02006231           JUNCTION        1.17          0.614        0.916
  WS02006232           JUNCTION        2.38          0.891        0.589
  WS02006234           JUNCTION        1.50          0.938        0.302
  WS02006235           JUNCTION        2.29          1.065        0.225
  WS02006238           JUNCTION        2.35          1.134        0.296
  WS02006239           JUNCTION        2.31          1.086        0.204
  WS02006240           JUNCTION        2.34          1.046        0.344
  WS02006242           JUNCTION        2.37          0.820        0.000
  WS02006243           JUNCTION        2.34          0.770        0.000
  WS02006245           JUNCTION        2.33          0.741        0.109
  WS02006247           JUNCTION        2.34          0.654        0.106
  WS02006248           JUNCTION        2.33          0.380        0.000
  WS02006249           JUNCTION        2.33          0.390        0.000
  WS02006251           JUNCTION        1.26          0.292        0.888
  WS02006252           JUNCTION        2.65          1.100        0.000
  WS02006256           JUNCTION        6.64          2.050        0.000
  YS02001580           JUNCTION        0.83          0.450        0.000
  YS02001583           JUNCTION        0.84          0.500        0.000
  YS02001586           JUNCTION        1.06          0.510        0.000
  YS02001590           JUNCTION        1.15          0.750        0.000
  YS02001593           JUNCTION        1.16          0.732        0.108
  YS02001596           JUNCTION        1.30          0.980        0.090
  YS02001600           JUNCTION        1.49          1.190        0.000
  YS02001601           JUNCTION        1.75          1.440        0.000
  YS02001602           JUNCTION        1.68          1.270        0.000
  YS02001605           JUNCTION        1.64          1.180        0.000
  YS02001607           JUNCTION        1.18          0.650        0.030
  YS02001610           JUNCTION        1.21          0.680        0.000
  YS02001613           JUNCTION        1.17          0.683        0.017
  YS02001616           JUNCTION        1.12          0.610        0.000
  YS02001619           JUNCTION        1.11          0.610        0.000
  YS02001622           JUNCTION        1.11          0.620        0.000
  YS02001625           JUNCTION        1.32          0.780        0.000
  YS02001629           JUNCTION        1.04          0.470        0.000
  YS02001633           JUNCTION        1.36          1.047        0.013
  YS02001641           JUNCTION        1.32          0.988        0.112
  YS02001644           JUNCTION        1.31          0.920        0.000
  YS02001647           JUNCTION        1.07          0.809        0.091
  YS02001649           JUNCTION        1.25          1.050        0.000
  YS02001652           JUNCTION        0.99          1.130        0.000
  YS02001655           JUNCTION        0.72          1.200        0.000
  YS02001658           JUNCTION        0.34          1.300        0.000
  YS02001661           JUNCTION        0.04          0.811        0.579
  YS02001664           JUNCTION        0.01          0.238        1.072
  YS02001745           JUNCTION        0.01          1.350        0.000
  YS02001748           JUNCTION        0.24          1.190        0.000
  YS02001751           JUNCTION        0.53          1.200        0.000
  YS02001754           JUNCTION        0.88          1.150        0.000
  YS02001757           JUNCTION        1.33          1.210        0.000
  YS02001759           JUNCTION        1.22          1.210        0.000
  YS02001762           JUNCTION        1.18          1.150        0.000
  YS02001765           JUNCTION        1.13          1.100        0.000
  YS02001767           JUNCTION        1.09          1.030        0.000
  YS02001770           JUNCTION        1.04          0.920        0.000
  YS02001774           JUNCTION        1.16          1.050        0.000
  YS02001779           JUNCTION        0.85          0.680        0.000
  YS02001783           JUNCTION        0.71          0.903        0.697
  YS02001784           JUNCTION        0.68          0.594        0.896
  YS02001786           JUNCTION        0.56          0.274        1.156
  YS02001882           JUNCTION        0.64          0.830        0.000
  YS02001884           JUNCTION        0.65          0.870        0.000
  YS02001887           JUNCTION        0.70          0.926        0.024
  YS02001890           JUNCTION        0.71          0.760        0.000
  YS02001895           JUNCTION        0.63          0.750        0.000
  YS02001898           JUNCTION        0.62          0.740        0.000
  YS02001901           JUNCTION        0.68          0.870        0.000
  YS02001904           JUNCTION        0.67          0.754        0.096
  YS02001907           JUNCTION        0.95          0.950        0.000
  YS02001910           JUNCTION        0.75          1.036        0.064
  YS02001915           JUNCTION        0.64          1.000        0.000
  YS02001918           JUNCTION        0.54          0.810        0.000
  YS02001920           JUNCTION        0.56          1.119        0.021
  YS02001923           JUNCTION        0.14          0.820        0.000
  YS02001926           JUNCTION        0.18          0.900        0.000
  YS02001929           JUNCTION        0.01          0.780        0.000
  YS02006553           JUNCTION        0.97          1.106        0.084
  YS02006556           JUNCTION        0.84          1.190        0.160
  YS02006558           JUNCTION        0.84          1.211        0.189
  YS02006561           JUNCTION        0.50          0.753        0.397
  YS02163301           JUNCTION        1.34          0.944        0.086
  YS02163601           JUNCTION        1.41          1.080        0.000
  YS02164001           JUNCTION        1.32          1.003        0.097
  
  
  *********************
  Node Flooding Summary
  *********************
  
  Flooding refers to all water that overflows a node, whether it ponds or not.
  --------------------------------------------------------------------------
                                                             Total   Maximum
                                 Maximum   Time of Max       Flood    Ponded
                        Hours       Rate    Occurrence      Volume     Depth
  Node                 Flooded       LPS   days hr:min    10^6 ltr    Meters
  --------------------------------------------------------------------------
  WS02006242              0.01     38.91      0  01:40       0.000     0.000
  WS02006243              0.01      7.52      0  03:58       0.000     0.000
  WS02006248              0.02     44.85      0  01:40       0.001     0.000
  WS02006249              1.22     86.95      0  02:56       0.291     0.000
  WS02006252              0.01    245.63      0  00:00       0.000     0.000
  WS02006256              1.45    307.74      0  01:35       0.519     0.000
  YS02001580              0.01     93.94      0  01:33       0.000     0.000
  YS02001583              0.01    218.44      0  01:33       0.000     0.000
  YS02001586              0.67    422.18      0  01:43       0.512     0.000
  YS02001590              0.01      9.12      0  01:32       0.000     0.000
  YS02001600              0.01      3.25      0  01:32       0.000     0.000
  YS02001601              0.97   1259.67      0  01:41       1.872     0.000
  YS02001602              0.88     61.98      0  02:15       0.177     0.000
  YS02001605              0.01      2.84      0  01:33       0.000     0.000
  YS02001610              0.76    720.01      0  01:42       0.953     0.000
  YS02001616              0.01     11.18      0  01:33       0.000     0.000
  YS02001619              0.01     10.51      0  01:33       0.000     0.000
  YS02001622              0.01    297.64      0  01:33       0.001     0.000
  YS02001625              0.74   1342.46      0  01:42       1.687     0.000
  YS02001629              0.13    332.76      0  01:33       0.069     0.000
  YS02001644              0.27    978.00      0  01:37       0.551     0.000
  YS02001649              0.01    178.09      0  01:36       0.001     0.000
  YS02001652              0.01     79.30      0  01:35       0.000     0.000
  YS02001655              0.01    437.74      0  01:35       0.000     0.000
  YS02001658              0.01    289.92      0  01:36       0.000     0.000
  YS02001745              0.01    108.27      0  01:36       0.000     0.000
  YS02001748              0.01    424.43      0  01:36       0.001     0.000
  YS02001751              0.01    293.52      0  01:36       0.000     0.000
  YS02001754              0.01     94.98      0  01:36       0.000     0.000
  YS02001757              0.01     95.98      0  01:36       0.001     0.000
  YS02001759              0.01     22.06      0  01:36       0.000     0.000
  YS02001762              0.01     29.30      0  01:36       0.000     0.000
  YS02001765              0.01     12.30      0  01:36       0.000     0.000
  YS02001767              0.01    155.10      0  01:35       0.000     0.000
  YS02001770              0.01    287.77      0  01:35       0.002     0.000
  YS02001774              0.01     53.18      0  01:35       0.000     0.000
  YS02001779              0.23    535.52      0  01:40       0.266     0.000
  YS02001882              0.01     58.15      0  01:34       0.000     0.000
  YS02001884              0.01     33.72      0  01:34       0.000     0.000
  YS02001890              0.20    333.10      0  01:38       0.132     0.000
  YS02001895              0.01     74.45      0  01:34       0.000     0.000
  YS02001898              0.01    208.95      0  01:34       0.000     0.000
  YS02001901              0.01     11.97      0  01:34       0.000     0.000
  YS02001907              0.47   1921.63      0  01:39       1.671     0.000
  YS02001915              0.01    214.42      0  01:34       0.000     0.000
  YS02001918              0.01    220.37      0  01:36       0.003     0.000
  YS02001923              0.01    346.33      0  01:35       0.002     0.000
  YS02001926              0.01    892.42      0  01:35       0.004     0.000
  YS02001929              0.01    742.99      0  01:35       0.002     0.000
  YS02163601              0.01      3.04      0  01:35       0.000     0.000
  
  
  **********************
  Storage Volume Summary
  **********************
  
  ------------------------------------------------------------------------------------------------
                         Average    Avg   Evap  Exfil     Maximum    Max    Time of Max    Maximum
                          Volume   Pcnt   Pcnt   Pcnt      Volume   Pcnt     Occurrence    Outflow
  Storage Unit           1000 m³   Full   Loss   Loss     1000 m³   Full    days hr:min        LPS
  ------------------------------------------------------------------------------------------------
  CC-storage               2.763   43.1    0.0    0.0       5.084   79.3       0  02:20    1783.53
  JK-storage               0.165   56.8    0.0    0.0       0.213   73.1       0  02:00    2300.00
  
  
  ***********************
  Outfall Loading Summary
  ***********************
  
  -----------------------------------------------------------
                         Flow       Avg       Max       Total
                         Freq      Flow      Flow      Volume
  Outfall Node           Pcnt       LPS       LPS    10^6 ltr
  -----------------------------------------------------------
  CC-1                  22.00    683.00    683.00       4.521
  CC-2                  18.81    683.00    683.00       3.723
  JK-1                  11.92   1000.00   1000.00       3.177
  JK-2                   0.53   1000.00   1000.00       0.170
  WSC                   99.96    250.37    554.02       6.143
  -----------------------------------------------------------
  System                30.64   3616.37   3878.42      17.734
  
  
  ********************
  Link Flow Summary
  ********************
  
  -----------------------------------------------------------------------------
                                 Maximum  Time of Max   Maximum    Max/    Max/
                                  |Flow|   Occurrence   |Veloc|    Full    Full
  Link                 Type          LPS  days hr:min     m/sec    Flow   Depth
  -----------------------------------------------------------------------------
  1                    CONDUIT    554.02     0  02:05      2.83    0.19    0.30
  WS02003060WS02003069 CONDUIT    552.48     0  02:03      1.64    0.22    0.34
  WS02003066WSF200     CONDUIT    535.83     0  02:02      2.85    0.09    0.22
  WS02003067WS02003066 CONDUIT    535.80     0  02:02      1.21    0.17    0.42
  WS02003069WS02003072 CONDUIT    552.57     0  02:04      1.37    0.27    0.39
  WS02003072WS02003073 CONDUIT    552.40     0  02:04      1.43    1.19    0.37
  WS02004401WS02004402 CONDUIT    538.16     0  02:02      0.98    0.65    0.86
  WS02004402WS02004403 CONDUIT    537.63     0  02:02      0.97    0.77    0.88
  WS02004403WS02004404 CONDUIT    536.91     0  02:02      0.92    0.39    0.93
  WS02004404WS02004405 CONDUIT    537.33     0  02:02      1.08    5.26    0.96
  WS02004405WS02004406 CONDUIT    537.43     0  02:03      0.99    1.06    0.96
  WS02004406WS02004407 CONDUIT    536.86     0  02:00      1.04    0.24    0.63
  WS02004407WS02004409 CONDUIT    536.70     0  02:00      1.57    0.19    0.48
  WS02004409WS02004410 CONDUIT    536.42     0  02:01      1.05    0.69    0.67
  WS02004410WS02004411 CONDUIT    536.08     0  02:01      1.01    0.73    0.69
  WS02004411WS02004412 CONDUIT    535.98     0  02:01      0.98    0.76    0.69
  WS02004412WS02004413 CONDUIT    535.84     0  02:01      0.82    0.36    0.78
  WS02004413WS02003067 CONDUIT    535.72     0  02:02      1.11    0.23    0.59
  WS02006109WS02006110 CONDUIT    587.03     0  02:56      1.17    1.13    1.00
  WS02006110WS02006113 CONDUIT    578.60     0  02:56      1.39    0.53    0.79
  WS02006111WS02006112 CONDUIT    545.15     0  03:59      1.81    0.26    0.67
  WS02006112WS02006115 CONDUIT    552.74     0  02:36      0.88    0.33    0.87
  WS02006113WS02006111 CONDUIT    565.52     0  03:58      2.47    0.68    0.47
  WS02006115WS02006116 CONDUIT    541.00     0  02:13      1.14    0.69    0.76
  WS02006116WS02004401 CONDUIT    538.78     0  02:02      0.99    0.74    0.84
  WS02006228WS02006109 CONDUIT    581.97     0  02:56      1.16    2.54    1.00
  WS02006229WS02006228 CONDUIT    572.96     0  02:56      1.14    1.90    1.00
  WS02006230WS02006229 CONDUIT    568.39     0  02:56      1.48   12.65    1.00
  WS02006231WS02006230 CONDUIT    583.41     0  02:11      1.60    8.85    1.00
  WS02006232WS02006231 CONDUIT    579.53     0  02:56      1.51    1.21    1.00
  WS02006234WS02006232 CONDUIT    582.18     0  02:56      1.51    1.18    1.00
  WS02006235WS02006234 CONDUIT    578.91     0  02:56      1.50    6.11    1.00
  WS02006238WS02006235 CONDUIT    425.45     0  02:50      1.56    0.95    1.00
  WS02006239WS02006238 CONDUIT    423.89     0  02:50      1.20    1.36    1.00
  WS02006240WS02006239 CONDUIT    423.14     0  02:50      1.30    1.33    1.00
  WS02006242WS02006240 CONDUIT    422.21     0  03:20      1.15    1.68    1.00
  WS02006243WS02006242 CONDUIT    425.31     0  03:20      1.42    0.91    1.00
  WS02006245WS02006243 CONDUIT    426.64     0  03:20      1.45    1.26    1.00
  WS02006247WS02006245 CONDUIT    427.15     0  03:20      1.43    3.39    1.00
  WS02006248WS02006247 CONDUIT    428.96     0  03:20      1.47    0.93    1.00
  WS02006249WS02006248 CONDUIT    430.54     0  03:20      1.40    2.36    1.00
  WS02006251WS02006249 CONDUIT    459.02     0  00:00      1.99    1.32    1.00
  WS02006252WS02006251 CONDUIT    405.48     0  02:11     24.61    1.49    1.00
  WS02006256WS02006235 CONDUIT    289.21     0  01:33      4.23    3.06    1.00
  WSF200WS02003060     CONDUIT    536.02     0  02:02      2.06    0.12    0.28
  YS02001580YS02001583 CONDUIT    147.28     0  01:33      0.84    0.57    1.00
  YS02001583YS02001586 CONDUIT    188.22     0  01:33      0.84    0.28    1.00
  YS02001586YS02001590 CONDUIT    318.09     0  01:52      1.27    0.56    1.00
  YS02001590YS02001593 CONDUIT    318.05     0  02:09      1.12    2.00    1.00
  YS02001593YS02001596 CONDUIT    318.19     0  01:52      1.72    0.50    1.00
  YS02001596YS02001600 CONDUIT    318.10     0  02:13      1.23    0.62    1.00
  YS02001600YS02001601 CONDUIT    317.93     0  01:51      1.12    0.55    1.00
  YS02001601YS02001602 CONDUIT    568.00     0  01:33      2.01    2.05    1.00
  YS02001602YS02001605 CONDUIT    568.01     0  01:33      2.01   12.02    1.00
  YS02001605YS02001607 CONDUIT    567.89     0  01:33      2.01    3.11    1.00
  YS02001607YS02001610 CONDUIT    554.34     0  01:33      0.71    0.53    1.00
  YS02001610YS02001613 CONDUIT    562.27     0  01:33      0.72    0.65    1.00
  YS02001613YS02001616 CONDUIT    581.75     0  01:33      0.74    0.50    1.00
  YS02001616YS02001619 CONDUIT    532.99     0  01:33      0.69    0.93    1.00
  YS02001619YS02001622 CONDUIT    985.42     0  01:33      1.26    1.45    1.00
  YS02001622YS02001625 CONDUIT    953.24     0  01:33      1.21    0.51    1.00
  YS02001625YS02001629 CONDUIT    953.27     0  01:33      1.22    0.45    1.00
  YS02001629YS02163301 CONDUIT    916.09     0  01:34      1.17    1.13    1.00
  YS02001633YS02163601 CONDUIT   1430.78     0  01:34      1.82    1.50    1.00
  YS02001641YS02001644 CONDUIT   1430.78     0  01:34      1.82    4.63    1.00
  YS02001644YS02001647 CONDUIT   1910.97     0  01:34      2.44    1.12    1.00
  YS02001647YS02001649 CONDUIT   1897.93     0  01:35      2.42    1.00    1.00
  YS02001649YS02001757 CONDUIT   2172.22     0  01:35      2.77    1.32    1.00
  YS02001652YS02001649 CONDUIT   1014.63     0  01:37      1.29    0.50    1.00
  YS02001655YS02001652 CONDUIT   1013.21     0  01:37      1.52    0.49    1.00
  YS02001658YS02001655 CONDUIT   1010.17     0  01:37      2.01    0.43    1.00
  YS02001661YS02001658 CONDUIT   1008.85     0  01:37      2.40    0.40    1.00
  YS02001664YS02001661 CONDUIT   1006.33     0  01:37      2.51    0.32    1.00
  YS02001745YS02001748 CONDUIT    634.01     0  01:37      2.35    0.24    1.00
  YS02001748YS02001751 CONDUIT    634.07     0  01:37      1.84    0.32    1.00
  YS02001751YS02001754 CONDUIT    635.30     0  01:37      1.54    0.31    1.00
  YS02001754YS02001757 CONDUIT    636.43     0  01:37      0.81    0.26    1.00
  YS02001757CaochengTiaoxuchi CONDUIT   3480.33     0  01:37      4.43    1.51    1.00
  YS02001759YS02001757 CONDUIT   1530.44     0  01:36      1.95    1.09    1.00
  YS02001762YS02001759 CONDUIT    863.71     0  01:36      1.10    1.00    1.00
  YS02001765YS02001762 CONDUIT    864.86     0  01:36      1.10    0.81    1.00
  YS02001767YS02001765 CONDUIT    866.41     0  01:36      1.10    1.09    1.00
  YS02001770YS02001767 CONDUIT    869.30     0  01:36      1.11    3.44    1.00
  YS02001774YS02001770 CONDUIT    553.22     0  01:35      0.70    0.35    1.00
  YS02001779YS02001774 CONDUIT    555.88     0  01:35      0.71    0.28    1.00
  YS02001783YS02001784 CONDUIT   1166.82     0  01:36      2.32    1.61    1.00
  YS02001784YS02001785 CONDUIT   1167.80     0  01:36      2.32    2.72    1.00
  YS02001786YS02001788 CONDUIT   1168.76     0  01:36      2.48    2.25    0.89
  YS02001788YS02001790 CONDUIT   1179.33     0  01:37      2.71    0.87    0.84
  YS02001790YS02001791 CONDUIT   1295.67     0  01:38      3.44    1.41    0.70
  YS02001791YS02001793 CONDUIT   1249.22     0  01:41      6.71    0.54    0.45
  YS02001793JiankangQianchi CONDUIT   1230.56     0  01:44      2.41    0.10    0.65
  YS02001882YS02001884 CONDUIT     75.23     0  01:34      0.18    0.09    1.00
  YS02001884YS02001887 CONDUIT    130.06     0  01:33      0.17    0.17    1.00
  YS02001887YS02001890 CONDUIT    853.24     0  01:38      1.09    1.46    1.00
  YS02001890YS02001895 CONDUIT    549.68     0  01:35      0.70    0.26    1.00
  YS02001895YS02001898 CONDUIT    548.94     0  01:35      0.70    0.95    1.00
  YS02001898YS02001901 CONDUIT    548.21     0  01:35      0.70    0.35    1.00
  YS02001901YS02001904 CONDUIT    547.82     0  01:35      0.70    0.85    1.00
  YS02001904YS02001907 CONDUIT    547.36     0  01:35      0.70    0.19    1.00
  YS02001907YS02006553 CONDUIT    792.05     0  02:04      0.88    0.93    1.00
  YS02001910YS02001907 CONDUIT   1454.66     0  01:41      1.85    0.82    1.00
  YS02001915YS02001910 CONDUIT   1455.19     0  01:41      1.85    0.72    1.00
  YS02001918YS02001915 CONDUIT    606.21     0  01:35      0.77    0.33    1.00
  YS02001920YS02001918 CONDUIT    626.05     0  01:35      0.80    0.61    1.00
  YS02001923YS02001920 CONDUIT    595.94     0  01:35      0.77    0.27    1.00
  YS02001926YS02001923 CONDUIT    841.52     0  01:35      1.28    1.20    1.00
  YS02001929YS02001926 CONDUIT    614.43     0  01:35      1.20    0.29    1.00
  YS02006553YS02006556 CONDUIT    791.71     0  02:04      1.01    0.68    1.00
  YS02006556YS02006558 CONDUIT    792.87     0  02:04      1.01    0.63    1.00
  YS02006558YS02006561 CONDUIT   1183.78     0  01:35      4.19    2.62    1.00
  YS02006561YS02001783 CONDUIT   1166.48     0  01:36      2.32    0.60    1.00
  YS02163301YS02001633 CONDUIT    915.95     0  01:34      1.17    0.86    1.00
  YS02163601YS02164001 CONDUIT   1430.84     0  01:34      1.82    1.27    1.00
  YS02164001YS02001641 CONDUIT   1431.05     0  01:34      1.82    1.95    1.00
  CC-R1                PUMP       683.00     0  00:00              1.00
  CC-R2                PUMP       683.00     0  00:00              1.00
  CC-S1                PUMP       200.00     0  00:00              1.00
  CC-S2                PUMP       200.00     0  00:00              1.00
  JK-R1                PUMP      1000.00     0  00:00              1.00
  JK-R2                PUMP      1000.00     0  00:00              1.00
  JK-S                 PUMP       300.00     0  00:00              1.00
  
  
  ***************************
  Flow Classification Summary
  ***************************
  
  -------------------------------------------------------------------------------------
                      Adjusted    ---------- Fraction of Time in Flow Class ---------- 
                       /Actual         Up    Down  Sub   Sup   Up    Down  Norm  Inlet 
  Conduit               Length    Dry  Dry   Dry   Crit  Crit  Crit  Crit  Ltd   Ctrl  
  -------------------------------------------------------------------------------------
  1                       1.00   0.00  0.00  0.00  0.00  1.00  0.00  0.00  0.41  0.00
  WS02003060WS02003069    1.00   0.00  0.00  0.00  0.98  0.02  0.00  0.00  0.66  0.00
  WS02003066WSF200        1.00   0.13  0.00  0.00  0.00  0.87  0.00  0.00  0.73  0.00
  WS02003067WS02003066    1.00   0.10  0.02  0.00  0.88  0.00  0.00  0.00  0.00  0.00
  WS02003069WS02003072    1.00   0.00  0.00  0.00  0.99  0.01  0.00  0.00  0.69  0.00
  WS02003072WS02003073    1.00   0.00  0.00  0.00  0.00  0.00  0.00  1.00  0.00  0.00
  WS02004401WS02004402    1.00   0.02  0.00  0.00  0.98  0.00  0.00  0.00  0.00  0.00
  WS02004402WS02004403    1.00   0.02  0.00  0.00  0.97  0.00  0.00  0.00  0.00  0.00
  WS02004403WS02004404    1.00   0.00  0.03  0.00  0.97  0.00  0.00  0.00  0.00  0.00
  WS02004404WS02004405    1.00   0.00  0.00  0.00  1.00  0.00  0.00  0.00  0.00  0.00
  WS02004405WS02004406    1.00   0.00  0.00  0.00  1.00  0.00  0.00  0.00  0.00  0.00
  WS02004406WS02004407    1.00   0.00  0.05  0.00  0.95  0.00  0.00  0.00  0.00  0.00
  WS02004407WS02004409    1.00   0.05  0.00  0.00  0.94  0.02  0.00  0.00  0.94  0.00
  WS02004409WS02004410    1.00   0.05  0.00  0.00  0.95  0.00  0.00  0.00  0.03  0.00
  WS02004410WS02004411    1.00   0.05  0.00  0.00  0.95  0.00  0.00  0.00  0.01  0.00
  WS02004411WS02004412    1.00   0.05  0.00  0.00  0.95  0.00  0.00  0.00  0.00  0.00
  WS02004412WS02004413    1.00   0.05  0.00  0.00  0.94  0.00  0.00  0.00  0.01  0.00
  WS02004413WS02003067    1.00   0.06  0.04  0.00  0.00  0.00  0.90  0.00  0.00  0.00
  WS02006109WS02006110    1.00   0.00  0.01  0.00  0.98  0.00  0.01  0.00  0.00  0.00
  WS02006110WS02006113    1.00   0.01  0.01  0.00  0.98  0.00  0.00  0.00  0.00  0.00
  WS02006111WS02006112    1.00   0.02  0.00  0.00  0.98  0.00  0.00  0.00  0.98  0.00
  WS02006112WS02006115    1.00   0.02  0.00  0.00  0.97  0.00  0.00  0.00  0.00  0.00
  WS02006113WS02006111    1.00   0.02  0.00  0.00  0.00  0.98  0.00  0.00  0.18  0.00
  WS02006115WS02006116    1.00   0.02  0.00  0.00  0.97  0.00  0.00  0.01  0.00  0.00
  WS02006116WS02004401    1.00   0.02  0.00  0.00  0.98  0.00  0.00  0.00  0.00  0.00
  WS02006228WS02006109    1.00   0.00  0.00  0.00  1.00  0.00  0.00  0.00  0.00  0.00
  WS02006229WS02006228    1.00   0.00  0.00  0.00  0.99  0.00  0.00  0.01  0.00  0.00
  WS02006230WS02006229    1.00   0.00  0.00  0.00  0.99  0.00  0.00  0.01  0.01  0.00
  WS02006231WS02006230    1.00   0.00  0.00  0.00  0.30  0.00  0.70  0.00  0.00  0.00
  WS02006232WS02006231    1.00   0.00  0.00  0.00  0.98  0.00  0.01  0.00  0.00  0.00
  WS02006234WS02006232    1.00   0.00  0.00  0.00  1.00  0.00  0.00  0.00  0.08  0.00
  WS02006235WS02006234    1.00   0.00  0.00  0.00  0.89  0.00  0.11  0.00  0.00  0.00
  WS02006238WS02006235    1.00   0.00  0.00  0.00  1.00  0.00  0.00  0.00  0.00  0.00
  WS02006239WS02006238    1.00   0.00  0.00  0.00  1.00  0.00  0.00  0.00  0.16  0.00
  WS02006240WS02006239    1.00   0.00  0.00  0.00  0.75  0.00  0.00  0.25  0.04  0.00
  WS02006242WS02006240    1.00   0.00  0.00  0.00  0.98  0.00  0.02  0.00  0.00  0.00
  WS02006243WS02006242    1.00   0.00  0.00  0.00  0.98  0.00  0.00  0.02  0.43  0.00
  WS02006245WS02006243    1.00   0.00  0.00  0.00  0.83  0.00  0.00  0.17  0.01  0.00
  WS02006247WS02006245    1.00   0.00  0.00  0.00  0.98  0.00  0.00  0.02  0.00  0.00
  WS02006248WS02006247    1.00   0.00  0.00  0.00  0.98  0.00  0.00  0.02  0.32  0.00
  WS02006249WS02006248    1.00   0.00  0.00  0.00  0.57  0.00  0.43  0.00  0.00  0.00
  WS02006251WS02006249    1.00   0.00  0.00  0.00  0.99  0.01  0.00  0.00  0.45  0.00
  WS02006252WS02006251    1.00   0.00  0.49  0.00  0.16  0.00  0.36  0.00  0.00  0.00
  WS02006256WS02006235    1.00   0.00  0.00  0.00  0.99  0.01  0.00  0.00  0.00  0.00
  WSF200WS02003060        1.00   0.00  0.13  0.00  0.13  0.75  0.00  0.00  0.45  0.00
  YS02001580YS02001583    1.00   0.19  0.57  0.00  0.24  0.00  0.00  0.00  0.66  0.00
  YS02001583YS02001586    1.00   0.41  0.30  0.00  0.29  0.00  0.00  0.00  0.67  0.00
  YS02001586YS02001590    1.00   0.13  0.00  0.00  0.44  0.04  0.00  0.39  0.33  0.00
  YS02001590YS02001593    1.00   0.13  0.01  0.00  0.16  0.00  0.71  0.00  0.00  0.00
  YS02001593YS02001596    1.00   0.13  0.00  0.00  0.19  0.01  0.00  0.67  0.02  0.00
  YS02001596YS02001600    1.00   0.13  0.00  0.00  0.23  0.01  0.00  0.62  0.03  0.00
  YS02001600YS02001601    1.00   0.13  0.01  0.00  0.86  0.00  0.00  0.00  0.58  0.00
  YS02001601YS02001602    1.00   0.13  0.01  0.00  0.87  0.00  0.00  0.00  0.00  0.00
  YS02001602YS02001605    1.00   0.13  0.00  0.00  0.87  0.00  0.00  0.00  0.00  0.00
  YS02001605YS02001607    1.00   0.13  0.00  0.00  0.87  0.00  0.00  0.00  0.00  0.00
  YS02001607YS02001610    1.00   0.13  0.01  0.00  0.86  0.00  0.00  0.00  0.01  0.00
  YS02001610YS02001613    1.00   0.13  0.00  0.00  0.87  0.00  0.00  0.00  0.00  0.00
  YS02001613YS02001616    1.00   0.13  0.00  0.00  0.87  0.00  0.00  0.00  0.00  0.00
  YS02001616YS02001619    1.00   0.13  0.00  0.00  0.87  0.00  0.00  0.00  0.00  0.00
  YS02001619YS02001622    1.00   0.13  0.00  0.00  0.87  0.00  0.00  0.00  0.28  0.00
  YS02001622YS02001625    1.00   0.13  0.00  0.00  0.87  0.00  0.00  0.00  0.03  0.00
  YS02001625YS02001629    1.00   0.13  0.04  0.00  0.21  0.00  0.63  0.00  0.00  0.00
  YS02001629YS02163301    1.00   0.14  0.01  0.00  0.85  0.00  0.00  0.00  0.00  0.00
  YS02001633YS02163601    1.00   0.00  0.01  0.00  0.99  0.00  0.00  0.00  0.14  0.00
  YS02001641YS02001644    1.00   0.00  0.01  0.00  0.99  0.00  0.00  0.00  0.00  0.00
  YS02001644YS02001647    1.00   0.00  0.16  0.00  0.84  0.00  0.00  0.00  0.00  0.00
  YS02001647YS02001649    1.00   0.00  0.16  0.00  0.60  0.24  0.00  0.00  0.55  0.00
  YS02001649YS02001757    1.00   0.00  0.00  0.00  0.89  0.11  0.00  0.00  0.40  0.00
  YS02001652YS02001649    1.00   0.00  0.00  0.00  0.97  0.03  0.00  0.00  0.71  0.00
  YS02001655YS02001652    1.00   0.00  0.00  0.00  0.23  0.00  0.00  0.76  0.04  0.00
  YS02001658YS02001655    1.00   0.00  0.14  0.00  0.72  0.15  0.00  0.00  0.64  0.00
  YS02001661YS02001658    1.00   0.14  0.00  0.00  0.56  0.31  0.00  0.00  0.68  0.00
  YS02001664YS02001661    1.00   0.13  0.00  0.00  0.78  0.10  0.00  0.00  0.84  0.00
  YS02001745YS02001748    1.00   0.00  0.00  0.00  0.16  0.01  0.00  0.83  0.06  0.00
  YS02001748YS02001751    1.00   0.00  0.00  0.00  0.88  0.12  0.00  0.00  0.75  0.00
  YS02001751YS02001754    1.00   0.00  0.00  0.00  0.23  0.00  0.00  0.77  0.03  0.00
  YS02001754YS02001757    1.00   0.00  0.00  0.00  1.00  0.00  0.00  0.00  0.76  0.00
  YS02001757CaochengTiaoxuchi    1.00   0.00  0.00  0.00  1.00  0.00  0.00  0.00  0.60  0.00
  YS02001759YS02001757    1.00   0.00  0.00  0.00  0.98  0.02  0.00  0.00  0.51  0.00
  YS02001762YS02001759    1.00   0.00  0.00  0.00  1.00  0.00  0.00  0.00  0.04  0.00
  YS02001765YS02001762    1.00   0.00  0.00  0.00  1.00  0.00  0.00  0.00  0.64  0.00
  YS02001767YS02001765    1.00   0.00  0.00  0.00  1.00  0.00  0.00  0.00  0.01  0.00
  YS02001770YS02001767    1.00   0.00  0.00  0.00  1.00  0.00  0.00  0.00  0.00  0.00
  YS02001774YS02001770    1.00   0.00  0.13  0.00  0.71  0.00  0.16  0.00  0.02  0.00
  YS02001779YS02001774    1.00   0.00  0.00  0.00  1.00  0.00  0.00  0.00  0.73  0.00
  YS02001783YS02001784    1.00   0.00  0.16  0.00  0.84  0.00  0.00  0.00  0.55  0.00
  YS02001784YS02001785    1.00   0.00  0.00  0.00  1.00  0.00  0.00  0.00  0.15  0.00
  YS02001786YS02001788    1.00   0.00  0.00  0.00  0.79  0.21  0.00  0.00  0.00  0.00
  YS02001788YS02001790    1.00   0.00  0.00  0.00  0.21  0.79  0.00  0.00  0.78  0.00
  YS02001790YS02001791    1.00   0.00  0.00  0.00  0.01  0.99  0.00  0.00  0.17  0.00
  YS02001791YS02001793    1.00   0.00  0.00  0.00  0.00  1.00  0.00  0.00  0.01  0.00
  YS02001793JiankangQianchi    1.00   0.00  0.00  0.00  0.98  0.02  0.00  0.00  0.93  0.00
  YS02001882YS02001884    1.00   0.14  0.01  0.00  0.85  0.00  0.00  0.00  0.00  0.00
  YS02001884YS02001887    1.00   0.06  0.05  0.00  0.89  0.00  0.00  0.00  0.00  0.00
  YS02001887YS02001890    1.00   0.00  0.00  0.00  0.97  0.00  0.03  0.00  0.00  0.00
  YS02001890YS02001895    1.00   0.00  0.15  0.00  0.85  0.00  0.00  0.00  0.00  0.00
  YS02001895YS02001898    1.00   0.15  0.00  0.00  0.83  0.00  0.01  0.00  0.00  0.00
  YS02001898YS02001901    1.00   0.15  0.00  0.00  0.85  0.00  0.00  0.00  0.00  0.00
  YS02001901YS02001904    1.00   0.15  0.00  0.00  0.85  0.00  0.00  0.00  0.00  0.00
  YS02001904YS02001907    1.00   0.00  0.15  0.00  0.85  0.00  0.00  0.00  0.00  0.00
  YS02001907YS02006553    1.00   0.00  0.02  0.00  0.98  0.00  0.00  0.00  0.00  0.00
  YS02001910YS02001907    1.00   0.00  0.00  0.00  0.97  0.00  0.00  0.03  0.12  0.00
  YS02001915YS02001910    1.00   0.00  0.00  0.00  0.97  0.03  0.00  0.00  0.13  0.00
  YS02001918YS02001915    1.00   0.00  0.01  0.00  0.98  0.02  0.00  0.00  0.71  0.00
  YS02001920YS02001918    1.00   0.00  0.01  0.00  0.99  0.00  0.00  0.00  0.00  0.00
  YS02001923YS02001920    1.00   0.00  0.00  0.00  1.00  0.00  0.00  0.00  0.90  0.00
  YS02001926YS02001923    1.00   0.00  0.07  0.00  0.08  0.00  0.85  0.00  0.00  0.00
  YS02001929YS02001926    1.00   0.00  0.13  0.00  0.87  0.00  0.00  0.00  0.80  0.00
  YS02006553YS02006556    1.00   0.01  0.00  0.00  0.99  0.00  0.00  0.00  0.03  0.00
  YS02006556YS02006558    1.00   0.00  0.00  0.00  1.00  0.00  0.00  0.00  0.00  0.00
  YS02006558YS02006561    1.00   0.16  0.00  0.00  0.08  0.76  0.00  0.00  0.18  0.00
  YS02006561YS02001783    1.00   0.16  0.00  0.00  0.11  0.72  0.00  0.00  0.66  0.00
  YS02163301YS02001633    1.00   0.00  0.14  0.00  0.86  0.00  0.00  0.00  0.00  0.00
  YS02163601YS02164001    1.00   0.00  0.08  0.00  0.92  0.00  0.00  0.00  0.00  0.00
  YS02164001YS02001641    1.00   0.01  0.07  0.00  0.92  0.00  0.00  0.00  0.05  0.00
  
  
  *************************
  Conduit Surcharge Summary
  *************************
  
  ----------------------------------------------------------------------------
                                                           Hours        Hours 
                         --------- Hours Full --------   Above Full   Capacity
  Conduit                Both Ends  Upstream  Dnstream   Normal Flow   Limited
  ----------------------------------------------------------------------------
  WS02003072WS02003073        0.01      0.01      0.01      1.58         0.01
  WS02004404WS02004405        0.01      0.01      0.01      4.03         0.01
  WS02004405WS02004406        0.01      0.01      0.01      0.91         0.01
  WS02006109WS02006110        0.96      0.96      2.37      1.13         0.01
  WS02006110WS02006113        0.01      0.01      2.36      0.01         0.01
  WS02006111WS02006112        0.01      0.01      2.48      0.01         0.01
  WS02006112WS02006115        0.01      0.01      1.02      0.01         0.01
  WS02006228WS02006109        2.34      2.37      2.34      2.66         2.33
  WS02006229WS02006228        2.33      2.34      2.33      2.49         2.32
  WS02006230WS02006229        2.39      2.45      2.39      4.92         2.39
  WS02006231WS02006230        0.96      0.96      1.23      4.32         0.01
  WS02006232WS02006231        1.16      1.16      2.38      1.24         0.01
  WS02006234WS02006232        2.28      2.28      2.38      1.22         1.21
  WS02006235WS02006234        1.50      1.50      2.29      4.11         0.03
  WS02006238WS02006235        2.32      2.32      2.38      0.01         0.01
  WS02006239WS02006238        2.35      2.37      2.35      2.44         2.11
  WS02006240WS02006239        2.30      2.36      2.31      2.44         1.96
  WS02006242WS02006240        2.34      2.34      2.39      2.59         0.01
  WS02006243WS02006242        2.35      2.35      2.37      0.01         0.06
  WS02006245WS02006243        2.33      2.34      2.34      1.47         1.42
  WS02006247WS02006245        2.33      2.34      2.33      3.98         2.32
  WS02006248WS02006247        2.34      2.34      2.34      0.01         0.07
  WS02006249WS02006248        2.33      2.33      2.33      3.93         0.01
  WS02006251WS02006249        2.33      2.33      2.33      2.59         2.24
  WS02006252WS02006251        2.64      2.64      2.65      2.64         0.01
  WS02006256WS02006235        4.16      4.21      6.60      1.45         0.01
  YS02001580YS02001583        0.83      0.83      0.91      0.01         0.01
  YS02001583YS02001586        0.84      0.84      1.06      0.01         0.01
  YS02001586YS02001590        1.07      1.07      1.15      0.01         0.01
  YS02001590YS02001593        1.16      1.16      1.18      1.23         0.01
  YS02001593YS02001596        1.17      1.17      1.30      0.01         0.01
  YS02001596YS02001600        1.35      1.35      1.49      0.01         0.01
  YS02001600YS02001601        1.56      1.56      1.75      0.01         0.01
  YS02001601YS02001602        1.68      1.68      1.77      1.48         0.01
  YS02001602YS02001605        1.64      1.64      1.68      2.41         0.01
  YS02001605YS02001607        1.61      1.64      1.61      1.72         1.61
  YS02001607YS02001610        1.18      1.18      1.21      0.01         0.01
  YS02001610YS02001613        1.17      1.17      1.21      0.01         0.01
  YS02001613YS02001616        1.12      1.12      1.17      0.01         0.01
  YS02001616YS02001619        1.11      1.11      1.12      0.01         0.02
  YS02001619YS02001622        1.11      1.11      1.11      1.10         0.98
  YS02001622YS02001625        1.11      1.11      1.32      0.01         0.01
  YS02001625YS02001629        1.04      1.04      1.32      0.01         0.01
  YS02001629YS02163301        1.33      1.33      1.34      0.02         0.12
  YS02001633YS02163601        1.36      1.36      1.41      0.24         0.26
  YS02001641YS02001644        1.31      1.32      1.31      1.79         1.28
  YS02001644YS02001647        1.07      1.07      1.31      0.04         0.01
  YS02001647YS02001649        1.07      1.07      1.25      0.01         0.01
  YS02001649YS02001757        1.24      1.25      1.33      0.04         0.04
  YS02001652YS02001649        1.03      1.03      1.25      0.01         0.01
  YS02001655YS02001652        0.72      0.72      0.99      0.01         0.01
  YS02001658YS02001655        0.34      0.34      0.72      0.01         0.01
  YS02001661YS02001658        0.04      0.04      0.34      0.01         0.01
  YS02001664YS02001661        0.01      0.01      0.11      0.01         0.01
  YS02001745YS02001748        0.01      0.01      0.24      0.01         0.01
  YS02001748YS02001751        0.29      0.29      0.53      0.01         0.01
  YS02001751YS02001754        0.53      0.53      0.88      0.01         0.01
  YS02001754YS02001757        0.95      0.95      1.33      0.01         0.01
  YS02001757CaochengTiaoxuchi        1.30      1.33      2.31      0.43         0.39
  YS02001759YS02001757        1.22      1.22      1.33      0.01         0.03
  YS02001762YS02001759        1.18      1.18      1.22      0.01         0.02
  YS02001765YS02001762        1.13      1.13      1.18      0.01         0.01
  YS02001767YS02001765        1.09      1.09      1.13      0.01         0.02
  YS02001770YS02001767        1.09      1.09      1.09      0.70         0.71
  YS02001774YS02001770        1.04      1.04      1.16      0.01         0.01
  YS02001779YS02001774        0.85      0.85      1.16      0.01         0.01
  YS02001783YS02001784        0.68      0.71      0.68      0.88         0.68
  YS02001784YS02001785        0.56      0.68      0.56      1.23         0.56
  YS02001786YS02001788        0.01      0.56      0.01      1.03         0.01
  YS02001790YS02001791        0.01      0.01      0.01      0.66         0.01
  YS02001793JiankangQianchi        0.01      0.01      7.70      0.01         0.01
  YS02001882YS02001884        0.64      0.64      0.65      0.01         0.01
  YS02001884YS02001887        0.68      0.68      0.70      0.01         0.01
  YS02001887YS02001890        0.71      0.71      0.73      0.16         0.01
  YS02001890YS02001895        0.63      0.63      0.75      0.01         0.01
  YS02001895YS02001898        0.62      0.62      0.63      0.01         0.01
  YS02001898YS02001901        0.63      0.63      0.68      0.01         0.01
  YS02001901YS02001904        0.67      0.67      0.68      0.01         0.01
  YS02001904YS02001907        0.67      0.67      0.98      0.01         0.01
  YS02001907YS02006553        1.25      1.25      1.34      0.01         0.01
  YS02001910YS02001907        0.75      0.75      0.95      0.01         0.01
  YS02001915YS02001910        0.64      0.64      0.75      0.01         0.01
  YS02001918YS02001915        0.54      0.54      0.64      0.01         0.01
  YS02001920YS02001918        0.54      0.54      0.56      0.01         0.01
  YS02001923YS02001920        0.49      0.49      0.56      0.01         0.01
  YS02001926YS02001923        0.14      0.14      0.18      0.01         0.01
  YS02001929YS02001926        0.01      0.01      0.18      0.01         0.01
  YS02006553YS02006556        0.84      0.84      0.97      0.01         0.01
  YS02006556YS02006558        0.90      0.90      1.02      0.01         0.01
  YS02006558YS02006561        0.58      0.84      0.58      1.15         0.58
  YS02006561YS02001783        0.50      0.50      0.71      0.01         0.01
  YS02163301YS02001633        1.34      1.34      1.39      0.01         0.01
  YS02163601YS02164001        1.32      1.32      1.41      0.04         0.01
  YS02164001YS02001641        1.32      1.32      1.32      0.89         0.84
  
  
  ***************
  Pumping Summary
  ***************
  
  ---------------------------------------------------------------------------------------------------------
                                                  Min       Avg       Max     Total     Power    % Time Off
                        Percent   Number of      Flow      Flow      Flow    Volume     Usage    Pump Curve
  Pump                 Utilized   Start-Ups       LPS       LPS       LPS  10^6 ltr     Kw-hr    Low   High
  ---------------------------------------------------------------------------------------------------------
  CC-R1                   22.98           2      0.00    683.00    683.00     4.520     86.85    0.0    4.5
  CC-R2                   18.92           2      0.00    683.00    683.00     3.722     72.16    0.0    5.5
  CC-S1                   46.02           5      0.00    200.00    200.00     2.650     14.76    0.0    0.0
  CC-S2                   38.22           6      0.00    200.00    200.00     2.202     12.17    0.0    0.0
  JK-R1                   11.02          14      0.00   1000.00   1000.00     3.174     36.18    0.0    0.0
  JK-R2                    0.59           2      0.00   1000.00   1000.00     0.169      1.42    0.0    0.0
  JK-S                    18.12          22      0.00    300.00    300.00     1.565     21.73    0.0    0.0
  

  Analysis begun on:  Mon Jan 13 10:10:02 2025
  Analysis ended on:  Mon Jan 13 10:10:04 2025
  Total elapsed time: 00:00:02