
  EPA STORM WATER MANAGEMENT MODEL - VERSION 5.2 (Build 5.2.4)
  PYSWMM TOOLKIT API - VERSION v1.0 (2023-11-27)
  ------------------------------------------------------------

  WARNING 04: minimum elevation drop used for Conduit WS02004404WS02004405
  WARNING 03: negative offset ignored for Link YS02001904YS02001907
  
  ****************
  Analysis Options
  ****************
  Flow Units ............... LPS
  Process Models:
    Rainfall/Runoff ........ YES
    RDII ................... NO
    Snowmelt ............... NO
    Groundwater ............ NO
    Flow Routing ........... YES
    Ponding Allowed ........ NO
    Water Quality .......... NO
  Infiltration Method ...... HORTON
  Flow Routing Method ...... DYNWAVE
  Surcharge Method ......... EXTRAN
  Starting Date ............ 08/28/2015 08:00:00
  Ending Date .............. 08/28/2015 16:00:00
  Antecedent Dry Days ...... 8.0
  Report Time Step ......... 00:01:00
  Wet Time Step ............ 00:01:00
  Dry Time Step ............ 00:01:00
  Routing Time Step ........ 30.00 sec
  Variable Time Step ....... YES
  Maximum Trials ........... 8
  Number of Threads ........ 4
  Head Tolerance ........... 0.001500 m
  
  
  **************************        Volume         Depth
  Runoff Quantity Continuity     hectare-m            mm
  **************************     ---------       -------
  Total Precipitation ......         2.375        71.587
  Evaporation Loss .........         0.000         0.000
  Infiltration Loss ........         0.101         3.041
  Surface Runoff ...........         2.241        67.565
  Final Storage ............         0.033         0.995
  Continuity Error (%) .....        -0.020
  
  
  **************************        Volume        Volume
  Flow Routing Continuity        hectare-m      10^6 ltr
  **************************     ---------     ---------
  Dry Weather Inflow .......         0.025         0.251
  Wet Weather Inflow .......         2.241        22.411
  Groundwater Inflow .......         0.000         0.000
  RDII Inflow ..............         0.000         0.000
  External Inflow ..........         0.083         0.834
  External Outflow .........         1.570        15.705
  Flooding Loss ............         0.785         7.847
  Evaporation Loss .........         0.000         0.000
  Exfiltration Loss ........         0.000         0.000
  Initial Stored Volume ....         0.243         2.431
  Final Stored Volume ......         0.240         2.399
  Continuity Error (%) .....        -0.095
  
  
  *************************
  Highest Continuity Errors
  *************************
  Node YS02001884 (5.12%)
  Node YS02001583 (-4.35%)
  
  
  ***************************
  Time-Step Critical Elements
  ***************************
  Link WS02006252WS02006251 (49.53%)
  Link WS02006238WS02006235 (13.24%)
  Link WS02004404WS02004405 (9.23%)
  Link WS02003066WSF200 (8.25%)
  Link YS02001791YS02001793 (6.63%)
  
  
  ********************************
  Highest Flow Instability Indexes
  ********************************
  Link WS02006113WS02006111 (43)
  Link WS02004404WS02004405 (21)
  Link WS02006111WS02006112 (21)
  Link WS02004403WS02004404 (18)
  Link WS02006256WS02006235 (16)
  
  
  *********************************
  Most Frequent Nonconverging Nodes
  *********************************
  Node CC-1 (13.03%)
  Node CC-2 (13.03%)
  Node JK-1 (13.03%)
  Node JK-2 (13.03%)
  Node WSC (13.03%)
  
  
  *************************
  Routing Time Step Summary
  *************************
  Minimum Time Step           :     0.00 sec
  Average Time Step           :     1.79 sec
  Maximum Time Step           :     7.04 sec
  % of Time in Steady State   :     0.00
  Average Iterations per Step :     3.11
  % of Steps Not Converging   :    13.03
  Time Step Frequencies       :
     30.000 - 13.228 sec      :     0.00 %
     13.228 -  5.833 sec      :     3.31 %
      5.833 -  2.572 sec      :    20.80 %
      2.572 -  1.134 sec      :    20.94 %
      1.134 -  0.500 sec      :    54.95 %
  
  
  ***************************
  Subcatchment Runoff Summary
  ***************************
  
  ------------------------------------------------------------------------------------------------------------------------------
                            Total      Total      Total      Total     Imperv       Perv      Total       Total     Peak  Runoff
                           Precip      Runon       Evap      Infil     Runoff     Runoff     Runoff      Runoff   Runoff   Coeff
  Subcatchment                 mm         mm         mm         mm         mm         mm         mm    10^6 ltr      LPS
  ------------------------------------------------------------------------------------------------------------------------------
  sub60                     71.59       0.00       0.00       1.83      61.79       6.76      68.56        0.90   589.32   0.958
  sub61                     71.59       0.00       0.00       2.65      58.29       9.52      67.81        1.24   818.09   0.947
  sub62                     71.59       0.00       0.00       1.22      64.57       4.51      69.09        1.89  1157.39   0.965
  sub63                     71.59       0.00       0.00       4.88      49.86      15.88      65.74        1.49   926.24   0.918
  sub64                     71.59       0.00       0.00       2.47      59.64       8.27      67.91        1.63   944.87   0.949
  sub65                     71.59       0.00       0.00       2.14      61.03       7.17      68.20        1.88  1059.50   0.953
  sub66                     71.59       0.00       0.00       6.05      49.75      14.71      64.46        3.01  1403.05   0.901
  sub67                     71.59       0.00       0.00       1.17      64.62       4.56      69.17        1.29   881.49   0.966
  sub68                     71.59       0.00       0.00       2.19      60.38       7.83      68.21        1.88  1186.32   0.953
  sub69                     71.59       0.00       0.00       1.96      60.74       8.78      69.52        2.57  1410.10   0.971
  sub70                     71.59       0.00       0.00       6.54      47.08      17.80      64.88        1.87   789.71   0.906
  sub71                     71.59       0.00       0.00       1.25      64.53       4.48      69.01        1.80  1022.88   0.964
  sub72                     71.59       0.00       0.00       1.11      65.17       3.90      69.07        0.95   498.77   0.965
  
  
  ******************
  Node Depth Summary
  ******************
  
  ---------------------------------------------------------------------------------
                                 Average  Maximum  Maximum  Time of Max    Reported
                                   Depth    Depth      HGL   Occurrence   Max Depth
  Node                 Type       Meters   Meters   Meters  days hr:min      Meters
  ---------------------------------------------------------------------------------
  WS02003060           JUNCTION     0.24     0.38     5.32     0  02:22        0.38
  WS02003066           JUNCTION     0.20     0.30     5.85     0  02:21        0.30
  WS02003067           JUNCTION     0.51     0.70     6.02     0  02:21        0.70
  WS02003069           JUNCTION     0.26     0.43     5.02     0  02:23        0.43
  WS02003072           JUNCTION     0.33     0.50     4.87     0  02:23        0.50
  WS02003073           JUNCTION     0.19     0.30     4.36     0  02:24        0.30
  WS02004401           JUNCTION     0.59     0.88     6.88     0  02:19        0.88
  WS02004402           JUNCTION     0.63     0.91     6.87     0  02:17        0.90
  WS02004403           JUNCTION     0.65     0.92     6.85     0  02:20        0.92
  WS02004404           JUNCTION     0.73     1.05     6.90     0  02:20        1.04
  WS02004405           JUNCTION     0.71     0.97     6.82     0  02:19        0.96
  WS02004406           JUNCTION     0.73     0.96     6.79     0  02:19        0.96
  WS02004407           JUNCTION     0.18     0.30     6.61     0  02:20        0.30
  WS02004409           JUNCTION     0.39     0.67     6.44     0  02:20        0.67
  WS02004410           JUNCTION     0.42     0.68     6.40     0  02:20        0.68
  WS02004411           JUNCTION     0.44     0.69     6.37     0  02:21        0.69
  WS02004412           JUNCTION     0.46     0.70     6.34     0  02:21        0.70
  WS02004413           JUNCTION     0.62     0.86     6.33     0  02:21        0.86
  WS02006109           JUNCTION     0.64     1.25     7.87     0  02:44        1.02
  WS02006110           JUNCTION     0.65     1.29     7.88     0  02:44        0.98
  WS02006111           JUNCTION     0.17     0.29     6.99     0  03:08        0.29
  WS02006112           JUNCTION     0.75     1.09     6.98     0  02:47        1.07
  WS02006113           JUNCTION     0.26     0.46     7.35     0  02:48        0.46
  WS02006115           JUNCTION     0.48     0.78     6.92     0  02:19        0.77
  WS02006116           JUNCTION     0.56     0.86     6.90     0  02:20        0.86
  WS02006228           JUNCTION     0.63     1.20     7.86     0  02:44        1.07
  WS02006229           JUNCTION     0.60     1.24     7.93     0  02:37        1.09
  WS02006230           JUNCTION     0.60     1.46     8.20     0  02:37        1.25
  WS02006231           JUNCTION     0.42     1.54     8.67     0  03:05        0.97
  WS02006232           JUNCTION     0.56     1.53     8.57     0  03:05        1.40
  WS02006234           JUNCTION     0.48     1.96     9.12     0  03:05        1.52
  WS02006235           JUNCTION     0.52     1.94     9.10     0  03:05        1.76
  WS02006238           JUNCTION     0.55     1.99     9.14     0  03:05        1.83
  WS02006239           JUNCTION     0.52     1.90     9.11     0  03:29        1.90
  WS02006240           JUNCTION     0.48     1.83     9.13     0  03:29        1.83
  WS02006242           JUNCTION     0.55     1.55     8.82     0  02:37        1.55
  WS02006243           JUNCTION     0.46     1.48     8.90     0  03:29        1.48
  WS02006245           JUNCTION     0.46     1.46     8.94     0  03:29        1.46
  WS02006247           JUNCTION     0.49     1.37     8.87     0  03:29        1.37
  WS02006248           JUNCTION     0.45     1.10     8.69     0  02:01        1.10
  WS02006249           JUNCTION     0.48     1.09     8.69     0  01:56        1.09
  WS02006251           JUNCTION     0.48     1.38     9.05     0  01:56        1.26
  WS02006252           JUNCTION     0.35     1.50     9.74     0  00:00        0.81
  WS02006256           JUNCTION     0.98     2.35     9.28     0  00:00        2.35
  WSF200               JUNCTION     0.17     0.29     5.52     0  02:22        0.29
  YS02001580           JUNCTION     0.08     1.05     9.59     0  01:52        0.77
  YS02001583           JUNCTION     0.12     1.14     9.64     0  02:19        1.14
  YS02001586           JUNCTION     0.18     1.13     9.30     0  01:52        1.13
  YS02001590           JUNCTION     0.27     1.40     9.26     0  02:19        1.40
  YS02001593           JUNCTION     0.21     1.32     9.18     0  02:19        1.30
  YS02001596           JUNCTION     0.29     1.80     9.22     0  02:19        1.80
  YS02001600           JUNCTION     0.34     1.87     9.00     0  02:01        1.87
  YS02001601           JUNCTION     0.53     2.06     8.90     0  01:51        2.06
  YS02001602           JUNCTION     0.44     1.87     8.77     0  01:51        1.87
  YS02001605           JUNCTION     0.41     1.78     8.68     0  01:51        1.78
  YS02001607           JUNCTION     0.41     1.68     8.53     0  02:19        1.68
  YS02001610           JUNCTION     0.46     1.68     8.48     0  01:51        1.68
  YS02001613           JUNCTION     0.41     1.70     8.54     0  02:19        1.70
  YS02001616           JUNCTION     0.34     1.61     8.52     0  02:01        1.61
  YS02001619           JUNCTION     0.32     1.61     8.54     0  01:51        1.61
  YS02001622           JUNCTION     0.31     1.62     8.52     0  01:51        1.60
  YS02001625           JUNCTION     0.58     1.78     8.38     0  01:54        1.78
  YS02001629           JUNCTION     0.43     1.85     8.40     0  01:52        1.85
  YS02001633           JUNCTION     0.51     2.08     8.53     0  02:01        2.08
  YS02001641           JUNCTION     0.50     2.02     8.46     0  02:19        1.94
  YS02001644           JUNCTION     0.49     1.92     8.35     0  01:57        1.92
  YS02001647           JUNCTION     0.29     1.80     8.41     0  01:57        1.80
  YS02001649           JUNCTION     0.33     2.04     8.43     0  02:01        2.04
  YS02001652           JUNCTION     0.23     2.15     8.75     0  02:30        1.95
  YS02001655           JUNCTION     0.18     2.15     9.00     0  02:30        1.66
  YS02001658           JUNCTION     0.13     1.66     8.80     0  01:56        1.40
  YS02001661           JUNCTION     0.15     1.35     8.76     0  01:58        1.17
  YS02001664           JUNCTION     0.05     0.64     8.56     0  02:01        0.63
  YS02001745           JUNCTION     0.07     0.87     8.38     0  02:01        0.85
  YS02001748           JUNCTION     0.12     1.64     8.72     0  01:57        1.28
  YS02001751           JUNCTION     0.15     1.64     8.52     0  01:57        1.47
  YS02001754           JUNCTION     0.21     1.79     8.40     0  02:01        1.79
  YS02001757           JUNCTION     0.36     2.14     8.40     0  02:01        2.14
  YS02001759           JUNCTION     0.30     2.17     8.53     0  02:01        2.17
  YS02001762           JUNCTION     0.29     2.09     8.49     0  02:01        2.09
  YS02001765           JUNCTION     0.27     2.03     8.48     0  02:01        2.03
  YS02001767           JUNCTION     0.27     1.98     8.47     0  02:01        1.98
  YS02001770           JUNCTION     0.28     1.95     8.44     0  02:00        1.95
  YS02001774           JUNCTION     0.34     2.01     8.43     0  02:19        1.98
  YS02001779           JUNCTION     0.19     1.68     8.37     0  01:55        1.68
  YS02001783           JUNCTION     0.22     1.46     7.60     0  02:19        1.23
  YS02001784           JUNCTION     0.23     1.41     7.48     0  02:19        1.12
  YS02001786           JUNCTION     0.20     0.92     6.95     0  01:55        0.87
  YS02001788           JUNCTION     0.14     0.62     6.60     0  02:00        0.62
  YS02001790           JUNCTION     0.17     0.73     6.37     0  02:01        0.72
  YS02001791           JUNCTION     0.11     0.45     5.92     0  01:59        0.44
  YS02001793           JUNCTION     0.06     0.30     5.13     0  02:01        0.28
  YS02001882           JUNCTION     0.28     1.72     8.44     0  01:56        1.72
  YS02001884           JUNCTION     0.38     1.85     8.47     0  02:19        1.85
  YS02001887           JUNCTION     0.45     2.00     8.54     0  02:19        2.00
  YS02001890           JUNCTION     0.48     1.81     8.32     0  01:55        1.81
  YS02001895           JUNCTION     0.25     1.68     8.43     0  02:19        1.68
  YS02001898           JUNCTION     0.26     1.77     8.51     0  02:19        1.77
  YS02001901           JUNCTION     0.38     1.69     8.30     0  01:56        1.68
  YS02001904           JUNCTION     0.36     1.71     8.34     0  02:19        1.71
  YS02001907           JUNCTION     0.68     1.96     8.25     0  01:55        1.96
  YS02001910           JUNCTION     0.48     2.10     8.61     0  02:19        2.10
  YS02001915           JUNCTION     0.28     2.00     8.72     0  02:01        2.00
  YS02001918           JUNCTION     0.15     1.81     8.88     0  01:56        1.57
  YS02001920           JUNCTION     0.23     2.14     9.15     0  02:19        2.14
  YS02001923           JUNCTION     0.11     2.03     9.29     0  01:56        1.34
  YS02001926           JUNCTION     0.15     1.90     9.35     0  01:56        1.17
  YS02001929           JUNCTION     0.08     1.78     9.47     0  01:56        0.94
  YS02006553           JUNCTION     0.69     1.99     8.28     0  02:01        1.99
  YS02006556           JUNCTION     0.66     2.39     8.70     0  02:19        2.39
  YS02006558           JUNCTION     0.70     2.50     8.77     0  02:19        2.50
  YS02006561           JUNCTION     0.14     1.04     7.70     0  01:55        0.90
  YS02163301           JUNCTION     0.45     2.03     8.55     0  02:19        2.03
  YS02163601           JUNCTION     0.55     2.08     8.48     0  02:19        2.05
  YS02164001           JUNCTION     0.48     2.10     8.56     0  02:19        2.10
  CC-1                 OUTFALL      0.00     0.00     0.00     0  00:00        0.00
  CC-2                 OUTFALL      0.00     0.00     0.00     0  00:00        0.00
  JK-1                 OUTFALL      0.00     0.00     0.00     0  00:00        0.00
  JK-2                 OUTFALL      0.00     0.00     0.00     0  00:00        0.00
  WSC                  OUTFALL      0.19     0.30     0.97     0  02:24        0.30
  CC-storage           STORAGE      0.96     1.79     7.29     0  02:31        1.79
  JK-storage           STORAGE      3.27     4.24     5.04     0  02:21        4.18
  
  
  *******************
  Node Inflow Summary
  *******************
  
  -------------------------------------------------------------------------------------------------
                                  Maximum  Maximum                  Lateral       Total        Flow
                                  Lateral    Total  Time of Max      Inflow      Inflow     Balance
                                   Inflow   Inflow   Occurrence      Volume      Volume       Error
  Node                 Type           LPS      LPS  days hr:min    10^6 ltr    10^6 ltr     Percent
  -------------------------------------------------------------------------------------------------
  WS02003060           JUNCTION     16.53   555.90     0  02:22       0.476        6.01       0.061
  WS02003066           JUNCTION      0.00   539.28     0  02:21           0        5.54       0.035
  WS02003067           JUNCTION      0.00   539.24     0  02:21           0        5.55       0.088
  WS02003069           JUNCTION      0.32   556.25     0  02:22     0.00922        6.02       0.105
  WS02003072           JUNCTION      0.00   556.14     0  02:23           0        6.01       0.175
  WS02003073           JUNCTION      1.82   557.84     0  02:24      0.0524        6.06       0.164
  WS02004401           JUNCTION      0.00   541.27     0  02:12           0        5.66       0.194
  WS02004402           JUNCTION      0.00   541.29     0  02:20           0        5.65       0.197
  WS02004403           JUNCTION      0.00   541.13     0  02:20           0        5.63       0.188
  WS02004404           JUNCTION      0.16   560.71     0  02:17     0.00467        5.63       0.174
  WS02004405           JUNCTION      0.04   609.01     0  02:19      0.0011        5.62       0.137
  WS02004406           JUNCTION      0.00   545.23     0  02:16           0        5.61       0.386
  WS02004407           JUNCTION      0.00   540.28     0  02:20           0        5.59       0.029
  WS02004409           JUNCTION      0.00   540.09     0  02:20           0        5.59       0.074
  WS02004410           JUNCTION      0.00   539.78     0  02:20           0        5.59       0.109
  WS02004411           JUNCTION      0.00   539.68     0  02:20           0        5.58       0.131
  WS02004412           JUNCTION      0.00   539.50     0  02:21           0        5.57       0.167
  WS02004413           JUNCTION      0.00   539.34     0  02:21           0        5.56       0.283
  WS02006109           JUNCTION      1.23   558.88     0  02:37      0.0354         5.7       0.024
  WS02006110           JUNCTION      0.00   558.64     0  02:37           0         5.7       0.123
  WS02006111           JUNCTION      0.00   560.90     0  03:40           0        5.69       0.017
  WS02006112           JUNCTION      0.00   543.40     0  03:08           0        5.69       0.314
  WS02006113           JUNCTION      0.00   568.50     0  02:44           0        5.69       0.035
  WS02006115           JUNCTION      0.00   554.44     0  03:25           0        5.67       0.130
  WS02006116           JUNCTION      0.00   540.94     0  02:10           0        5.66       0.117
  WS02006228           JUNCTION      0.00   556.68     0  02:37           0        5.66       0.004
  WS02006229           JUNCTION      0.00   556.44     0  02:37           0        5.67       0.134
  WS02006230           JUNCTION     10.28   606.20     0  03:29       0.296        5.68       0.057
  WS02006231           JUNCTION      0.00   629.80     0  03:29           0        5.37      -0.138
  WS02006232           JUNCTION      0.00   625.78     0  03:29           0        5.39       0.339
  WS02006234           JUNCTION      0.00   607.15     0  03:29           0        5.38      -0.250
  WS02006235           JUNCTION      0.00   573.18     0  03:29           0        5.43       0.252
  WS02006238           JUNCTION      0.00   425.11     0  03:35           0        4.42      -0.282
  WS02006239           JUNCTION      0.00   425.45     0  03:35           0        4.39      -0.221
  WS02006240           JUNCTION      0.00   425.23     0  03:35           0        4.36      -0.058
  WS02006242           JUNCTION      0.00   424.64     0  03:35           0        4.34       0.094
  WS02006243           JUNCTION      0.00   423.88     0  03:35           0        4.34       0.155
  WS02006245           JUNCTION      0.00   423.34     0  03:35           0        4.36       0.548
  WS02006247           JUNCTION      0.00   424.67     0  03:35           0        4.36       0.038
  WS02006248           JUNCTION      0.00   423.35     0  03:35           0        4.37       0.147
  WS02006249           JUNCTION      0.00   459.02     0  00:00           0        4.65       0.459
  WS02006251           JUNCTION      0.08   408.75     0  03:29     0.00222        4.65      -0.038
  WS02006252           JUNCTION      0.00   400.00     0  00:00           0        4.64      -0.055
  WS02006256           JUNCTION      0.00   300.00     0  00:00           0        1.52      -0.797
  WSF200               JUNCTION      0.00   539.30     0  02:22           0        5.54       0.018
  YS02001580           JUNCTION      0.00   114.76     0  01:52           0      0.0042      -1.955
  YS02001583           JUNCTION      0.00   151.37     0  01:52           0      0.0153      -4.165
  YS02001586           JUNCTION    789.71   789.71     0  02:04        1.87        1.89       0.063
  YS02001590           JUNCTION      0.00   322.86     0  02:19           0        1.42      -0.017
  YS02001593           JUNCTION      0.00   323.88     0  02:19           0        1.42       0.007
  YS02001596           JUNCTION      0.00   318.11     0  02:12           0        1.42      -0.010
  YS02001600           JUNCTION      0.00   318.08     0  02:19           0        1.42       0.012
  YS02001601           JUNCTION   1410.10  1727.52     0  02:03        2.57           4       0.024
  YS02001602           JUNCTION      0.00   515.26     0  01:51           0        2.38       0.021
  YS02001605           JUNCTION      0.00   515.10     0  01:51           0        2.24       0.025
  YS02001607           JUNCTION      0.00   514.66     0  01:51           0        2.24       0.088
  YS02001610           JUNCTION      0.00   781.94     0  02:04           0        2.53       0.088
  YS02001613           JUNCTION      0.00   522.46     0  01:51           0           2       0.087
  YS02001616           JUNCTION      0.00   519.62     0  01:51           0           2       0.026
  YS02001619           JUNCTION   1403.05  1403.05     0  02:04        3.01        4.71       0.001
  YS02001622           JUNCTION      0.00   968.82     0  02:02           0        4.41      -0.000
  YS02001625           JUNCTION      0.00  1386.01     0  02:04           0        4.68       0.199
  YS02001629           JUNCTION      0.00   921.11     0  01:51           0        3.51       0.010
  YS02001633           JUNCTION   1059.70  1344.43     0  01:54        1.88        5.08       0.064
  YS02001641           JUNCTION      0.00  1344.99     0  01:54           0        4.77       0.058
  YS02001644           JUNCTION    944.91  1741.24     0  01:54        1.63         6.4       0.051
  YS02001647           JUNCTION      0.00  1747.17     0  01:54           0        5.78       0.006
  YS02001649           JUNCTION      0.00  1920.92     0  01:54           0        7.28       0.009
  YS02001652           JUNCTION      0.00   953.29     0  02:01           0         1.5      -0.059
  YS02001655           JUNCTION      0.15   952.94     0  02:01     0.00443         1.5      -0.110
  YS02001658           JUNCTION      0.00   952.93     0  02:01           0         1.5      -0.077
  YS02001661           JUNCTION      0.00   950.95     0  02:01           0         1.5       0.041
  YS02001664           JUNCTION    926.24   926.24     0  02:02        1.49        1.49      -0.009
  YS02001745           JUNCTION    589.32   589.32     0  02:02       0.901       0.902       0.170
  YS02001748           JUNCTION      0.04   606.49     0  02:01      0.0013       0.902      -0.230
  YS02001751           JUNCTION      0.01   606.59     0  02:01    0.000317       0.909       0.076
  YS02001754           JUNCTION      0.26   606.39     0  02:01     0.00749       0.925      -0.183
  YS02001757           JUNCTION      0.00  3194.88     0  02:00           0        11.1       0.011
  YS02001759           JUNCTION    818.13  1334.68     0  02:01        1.25        2.87      -0.008
  YS02001762           JUNCTION      0.00   704.75     0  01:58           0        1.63       0.001
  YS02001765           JUNCTION      0.00   705.67     0  01:57           0        1.63       0.009
  YS02001767           JUNCTION      0.54   707.16     0  01:57      0.0154        1.63      -0.002
  YS02001770           JUNCTION   1157.54  1157.54     0  02:02         1.9        1.94      -0.023
  YS02001774           JUNCTION      0.00   674.38     0  02:02           0       0.353       0.236
  YS02001779           JUNCTION      0.01   675.48     0  02:02    0.000144       0.306      -0.176
  YS02001783           JUNCTION      0.00  1167.25     0  02:01           0        4.32       0.006
  YS02001784           JUNCTION      1.06  1168.30     0  02:01      0.0305        4.35       0.015
  YS02001786           JUNCTION      0.06  1169.44     0  02:01     0.00162        4.35       0.011
  YS02001788           JUNCTION      0.07  1169.39     0  02:01     0.00204        4.35       0.007
  YS02001790           JUNCTION      0.15  1183.74     0  02:00     0.00446        4.36       0.020
  YS02001791           JUNCTION      0.00  1294.66     0  02:01           0        4.35      -0.027
  YS02001793           JUNCTION      0.00  1250.03     0  02:00           0        4.36       0.002
  YS02001882           JUNCTION      0.00    38.94     0  01:53           0      0.0127       5.156
  YS02001884           JUNCTION      0.00    66.03     0  01:53           0      0.0485       5.394
  YS02001887           JUNCTION    881.94   889.93     0  02:01         1.3        1.33       0.330
  YS02001890           JUNCTION      0.00   893.55     0  02:01           0        1.29       0.401
  YS02001895           JUNCTION      0.00   518.99     0  02:02           0        1.16       0.136
  YS02001898           JUNCTION      0.00   518.77     0  02:02           0        1.16       0.014
  YS02001901           JUNCTION      0.00   518.77     0  02:02           0        1.16       0.294
  YS02001904           JUNCTION      0.00   518.81     0  02:02           0        1.16       0.229
  YS02001907           JUNCTION      0.00  2072.84     0  02:02           0           4       0.448
  YS02001910           JUNCTION      0.00  1529.69     0  02:02           0        2.84       0.254
  YS02001915           JUNCTION   1022.90  1529.42     0  02:02        1.81        2.88       0.059
  YS02001918           JUNCTION      0.00   508.70     0  02:02           0         1.1      -0.004
  YS02001920           JUNCTION      2.87   508.31     0  02:02      0.0827        1.08       0.105
  YS02001923           JUNCTION      0.04   505.22     0  02:02     0.00109       0.982      -0.100
  YS02001926           JUNCTION      0.05   505.23     0  02:02      0.0015       0.962      -0.033
  YS02001929           JUNCTION    498.77   498.77     0  02:03        0.95       0.951      -0.058
  YS02006553           JUNCTION      0.00   796.40     0  02:20           0        2.47       0.483
  YS02006556           JUNCTION      0.00   796.62     0  02:20           0        2.48       0.316
  YS02006558           JUNCTION   1187.20  1187.20     0  02:02         1.9        4.35       0.081
  YS02006561           JUNCTION      0.00  1168.21     0  01:55           0        4.32      -0.001
  YS02163301           JUNCTION      0.00   917.63     0  01:54           0         3.5       0.037
  YS02163601           JUNCTION      0.11  1344.57     0  01:54     0.00317        4.77       0.103
  YS02164001           JUNCTION      0.00  1344.45     0  01:54           0        4.77       0.043
  CC-1                 OUTFALL       0.00   683.00     0  00:00           0        3.89       0.000
  CC-2                 OUTFALL       0.00   683.00     0  00:00           0        2.99       0.000
  JK-1                 OUTFALL       0.00  1000.00     0  00:00           0        2.13       0.000
  JK-2                 OUTFALL       0.00  1000.00     0  00:00           0       0.649       0.000
  WSC                  OUTFALL       0.00   557.64     0  02:24           0        6.05       0.000
  CC-storage           STORAGE       0.00  3195.56     0  02:00           0        13.3      -0.137
  JK-storage           STORAGE       0.00  1260.13     0  01:59           0        4.51       0.175
  
  
  **********************
  Node Surcharge Summary
  **********************
  
  Surcharging occurs when water rises above the top of the highest conduit.
  ---------------------------------------------------------------------
                                               Max. Height   Min. Depth
                                   Hours       Above Crown    Below Rim
  Node                 Type      Surcharged         Meters       Meters
  ---------------------------------------------------------------------
  WS02004404           JUNCTION        0.03          0.052        2.728
  WS02006109           JUNCTION        2.09          0.435        1.385
  WS02006110           JUNCTION        0.78          0.384        1.466
  WS02006112           JUNCTION        1.12          0.093        1.587
  WS02006228           JUNCTION        2.09          0.374        1.826
  WS02006229           JUNCTION        2.09          0.435        2.015
  WS02006230           JUNCTION        0.82          0.375        1.195
  WS02006231           JUNCTION        1.04          0.832        0.698
  WS02006232           JUNCTION        2.12          0.833        0.647
  WS02006234           JUNCTION        1.52          1.240        0.000
  WS02006235           JUNCTION        2.03          1.225        0.065
  WS02006238           JUNCTION        2.09          1.272        0.158
  WS02006239           JUNCTION        2.06          1.159        0.131
  WS02006240           JUNCTION        2.09          1.123        0.267
  WS02006242           JUNCTION        2.11          0.820        0.000
  WS02006243           JUNCTION        2.09          0.770        0.000
  WS02006245           JUNCTION        2.08          0.748        0.102
  WS02006247           JUNCTION        2.08          0.657        0.103
  WS02006248           JUNCTION        2.08          0.380        0.000
  WS02006249           JUNCTION        2.07          0.390        0.000
  WS02006251           JUNCTION        1.16          0.355        0.825
  WS02006252           JUNCTION        2.47          1.100        0.000
  WS02006256           JUNCTION        6.68          2.050        0.000
  YS02001580           JUNCTION        0.70          0.450        0.000
  YS02001583           JUNCTION        0.71          0.500        0.000
  YS02001586           JUNCTION        0.85          0.510        0.000
  YS02001590           JUNCTION        0.93          0.750        0.000
  YS02001593           JUNCTION        0.93          0.699        0.141
  YS02001596           JUNCTION        1.06          1.070        0.000
  YS02001600           JUNCTION        1.23          1.190        0.000
  YS02001601           JUNCTION        1.53          1.440        0.000
  YS02001602           JUNCTION        1.44          1.270        0.000
  YS02001605           JUNCTION        1.40          1.180        0.000
  YS02001607           JUNCTION        0.94          0.680        0.000
  YS02001610           JUNCTION        0.97          0.680        0.000
  YS02001613           JUNCTION        0.93          0.700        0.000
  YS02001616           JUNCTION        0.89          0.610        0.000
  YS02001619           JUNCTION        0.87          0.610        0.000
  YS02001622           JUNCTION        0.87          0.620        0.000
  YS02001625           JUNCTION        1.07          0.780        0.000
  YS02001629           JUNCTION        0.82          0.470        0.000
  YS02001633           JUNCTION        1.10          1.060        0.000
  YS02001641           JUNCTION        1.06          1.022        0.078
  YS02001644           JUNCTION        1.02          0.920        0.000
  YS02001647           JUNCTION        0.80          0.799        0.101
  YS02001649           JUNCTION        0.95          1.044        0.006
  YS02001652           JUNCTION        0.74          1.123        0.007
  YS02001655           JUNCTION        0.55          1.148        0.052
  YS02001658           JUNCTION        0.30          0.655        0.645
  YS02001661           JUNCTION        0.07          0.285        1.105
  YS02001748           JUNCTION        0.23          0.565        0.625
  YS02001751           JUNCTION        0.42          0.640        0.560
  YS02001754           JUNCTION        0.65          0.744        0.406
  YS02001757           JUNCTION        1.03          1.138        0.072
  YS02001759           JUNCTION        0.93          1.168        0.042
  YS02001762           JUNCTION        0.90          1.093        0.057
  YS02001765           JUNCTION        0.85          1.034        0.066
  YS02001767           JUNCTION        0.82          0.984        0.046
  YS02001770           JUNCTION        0.78          0.920        0.000
  YS02001774           JUNCTION        0.88          1.009        0.041
  YS02001779           JUNCTION        0.64          0.680        0.000
  YS02001783           JUNCTION        0.60          0.662        0.938
  YS02001784           JUNCTION        0.58          0.610        0.880
  YS02001786           JUNCTION        0.47          0.118        1.312
  YS02001882           JUNCTION        0.55          0.721        0.109
  YS02001884           JUNCTION        0.56          0.792        0.078
  YS02001887           JUNCTION        0.59          0.950        0.000
  YS02001890           JUNCTION        0.61          0.760        0.000
  YS02001895           JUNCTION        0.54          0.678        0.072
  YS02001898           JUNCTION        0.53          0.740        0.000
  YS02001901           JUNCTION        0.58          0.693        0.177
  YS02001904           JUNCTION        0.57          0.714        0.136
  YS02001907           JUNCTION        0.83          0.950        0.000
  YS02001910           JUNCTION        0.64          1.100        0.000
  YS02001915           JUNCTION        0.54          1.000        0.000
  YS02001918           JUNCTION        0.46          0.810        0.000
  YS02001920           JUNCTION        0.47          1.140        0.000
  YS02001923           JUNCTION        0.14          0.820        0.000
  YS02001926           JUNCTION        0.17          0.900        0.000
  YS02001929           JUNCTION        0.01          0.780        0.000
  YS02006553           JUNCTION        0.86          0.993        0.197
  YS02006556           JUNCTION        0.74          1.350        0.000
  YS02006558           JUNCTION        0.72          1.400        0.000
  YS02006561           JUNCTION        0.42          0.241        0.909
  YS02163301           JUNCTION        1.08          1.030        0.000
  YS02163601           JUNCTION        1.14          1.080        0.000
  YS02164001           JUNCTION        1.06          1.100        0.000
  
  
  *********************
  Node Flooding Summary
  *********************
  
  Flooding refers to all water that overflows a node, whether it ponds or not.
  --------------------------------------------------------------------------
                                                             Total   Maximum
                                 Maximum   Time of Max       Flood    Ponded
                        Hours       Rate    Occurrence      Volume     Depth
  Node                 Flooded       LPS   days hr:min    10^6 ltr    Meters
  --------------------------------------------------------------------------
  WS02006234              0.01     76.51      0  03:05       0.000     0.000
  WS02006242              0.01     21.59      0  03:05       0.000     0.000
  WS02006243              0.01      3.79      0  03:29       0.000     0.000
  WS02006248              0.02     22.43      0  03:05       0.001     0.000
  WS02006249              1.10    101.15      0  01:56       0.256     0.000
  WS02006252              0.01    245.63      0  00:00       0.000     0.000
  WS02006256              1.41    293.19      0  00:00       0.495     0.000
  YS02001580              0.01     95.12      0  01:52       0.000     0.000
  YS02001583              0.01      0.40      0  02:19       0.000     0.000
  YS02001586              0.56    472.07      0  02:04       0.452     0.000
  YS02001590              0.01      0.06      0  02:19       0.000     0.000
  YS02001596              0.01      0.11      0  02:19       0.000     0.000
  YS02001600              0.01      1.14      0  02:19       0.000     0.000
  YS02001601              0.78   1329.65      0  02:03       1.616     0.000
  YS02001602              0.68     62.06      0  02:19       0.138     0.000
  YS02001605              0.01      8.09      0  02:19       0.000     0.000
  YS02001607              0.01      0.27      0  02:19       0.000     0.000
  YS02001610              0.60    781.68      0  02:04       0.830     0.000
  YS02001613              0.01      0.89      0  02:19       0.000     0.000
  YS02001616              0.01     50.11      0  02:19       0.000     0.000
  YS02001619              0.01     81.94      0  02:19       0.000     0.000
  YS02001622              0.01     93.56      0  01:51       0.000     0.000
  YS02001625              0.58   1385.99      0  02:04       1.465     0.000
  YS02001629              0.15    138.75      0  01:59       0.046     0.000
  YS02001633              0.01      0.29      0  02:01       0.000     0.000
  YS02001644              0.26   1246.61      0  02:02       0.607     0.000
  YS02001770              0.01      6.69      0  02:01       0.000     0.000
  YS02001779              0.23    675.04      0  02:02       0.285     0.000
  YS02001887              0.01      0.81      0  02:19       0.000     0.000
  YS02001890              0.20    378.12      0  02:01       0.129     0.000
  YS02001898              0.01      0.36      0  02:19       0.000     0.000
  YS02001907              0.39   2070.89      0  02:02       1.522     0.000
  YS02001910              0.01      0.40      0  02:19       0.000     0.000
  YS02001915              0.01      0.08      0  02:01       0.000     0.000
  YS02001918              0.01    115.61      0  01:56       0.001     0.000
  YS02001920              0.01      1.30      0  02:19       0.000     0.000
  YS02001923              0.01     92.44      0  01:56       0.000     0.000
  YS02001926              0.01     60.57      0  01:56       0.000     0.000
  YS02001929              0.01    232.97      0  01:56       0.001     0.000
  YS02006556              0.01      1.21      0  02:19       0.000     0.000
  YS02006558              0.01     41.00      0  02:19       0.000     0.000
  YS02163301              0.01      1.02      0  02:19       0.000     0.000
  YS02163601              0.01     16.09      0  02:19       0.000     0.000
  YS02164001              0.01      2.60      0  02:19       0.000     0.000
  
  
  **********************
  Storage Volume Summary
  **********************
  
  ------------------------------------------------------------------------------------------------
                         Average    Avg   Evap  Exfil     Maximum    Max    Time of Max    Maximum
                          Volume   Pcnt   Pcnt   Pcnt      Volume   Pcnt     Occurrence    Outflow
  Storage Unit           1000 m³   Full   Loss   Loss     1000 m³   Full    days hr:min        LPS
  ------------------------------------------------------------------------------------------------
  CC-storage               2.681   41.8    0.0    0.0       4.998   78.0       0  02:31    1783.53
  JK-storage               0.164   56.4    0.0    0.0       0.213   73.1       0  02:21    2300.00
  
  
  ***********************
  Outfall Loading Summary
  ***********************
  
  -----------------------------------------------------------
                         Flow       Avg       Max       Total
                         Freq      Flow      Flow      Volume
  Outfall Node           Pcnt       LPS       LPS    10^6 ltr
  -----------------------------------------------------------
  CC-1                  19.37    683.00    683.00       3.894
  CC-2                  15.20    683.00    683.00       2.985
  JK-1                   8.80   1000.00   1000.00       2.131
  JK-2                   2.18   1000.00   1000.00       0.649
  WSC                   99.96    255.71    557.64       6.046
  -----------------------------------------------------------
  System                29.10   3621.71   3366.23      15.705
  
  
  ********************
  Link Flow Summary
  ********************
  
  -----------------------------------------------------------------------------
                                 Maximum  Time of Max   Maximum    Max/    Max/
                                  |Flow|   Occurrence   |Veloc|    Full    Full
  Link                 Type          LPS  days hr:min     m/sec    Flow   Depth
  -----------------------------------------------------------------------------
  1                    CONDUIT    557.64     0  02:24      2.83    0.19    0.30
  WS02003060WS02003069 CONDUIT    555.93     0  02:22      1.64    0.22    0.34
  WS02003066WSF200     CONDUIT    539.30     0  02:22      2.85    0.09    0.22
  WS02003067WS02003066 CONDUIT    539.28     0  02:21      1.21    0.17    0.42
  WS02003069WS02003072 CONDUIT    556.14     0  02:23      1.37    0.27    0.39
  WS02003072WS02003073 CONDUIT    556.02     0  02:24      1.44    1.20    0.37
  WS02004401WS02004402 CONDUIT    541.29     0  02:20      0.98    0.65    0.89
  WS02004402WS02004403 CONDUIT    541.13     0  02:20      0.97    0.78    0.91
  WS02004403WS02004404 CONDUIT    560.55     0  02:17      0.92    0.41    0.96
  WS02004404WS02004405 CONDUIT    608.97     0  02:19      1.08    5.97    0.98
  WS02004405WS02004406 CONDUIT    545.23     0  02:16      0.99    1.08    0.96
  WS02004406WS02004407 CONDUIT    540.28     0  02:20      1.04    0.24    0.63
  WS02004407WS02004409 CONDUIT    540.09     0  02:20      1.51    0.19    0.48
  WS02004409WS02004410 CONDUIT    539.78     0  02:20      1.00    0.70    0.68
  WS02004410WS02004411 CONDUIT    539.68     0  02:20      0.95    0.74    0.69
  WS02004411WS02004412 CONDUIT    539.50     0  02:21      0.93    0.77    0.70
  WS02004412WS02004413 CONDUIT    539.34     0  02:21      0.82    0.36    0.78
  WS02004413WS02003067 CONDUIT    539.24     0  02:21      1.11    0.23    0.59
  WS02006109WS02006110 CONDUIT    558.64     0  02:37      1.11    1.07    1.00
  WS02006110WS02006113 CONDUIT    568.50     0  02:44      1.38    0.52    0.79
  WS02006111WS02006112 CONDUIT    543.40     0  03:08      1.81    0.26    0.67
  WS02006112WS02006115 CONDUIT    554.44     0  03:25      0.83    0.33    0.88
  WS02006113WS02006111 CONDUIT    560.90     0  03:40      2.46    0.67    0.46
  WS02006115WS02006116 CONDUIT    540.94     0  02:10      0.98    0.69    0.79
  WS02006116WS02004401 CONDUIT    541.27     0  02:12      0.98    0.75    0.87
  WS02006228WS02006109 CONDUIT    557.65     0  02:37      1.11    2.44    1.00
  WS02006229WS02006228 CONDUIT    556.68     0  02:37      1.14    1.84    1.00
  WS02006230WS02006229 CONDUIT    556.44     0  02:37      1.45   12.38    1.00
  WS02006231WS02006230 CONDUIT    595.92     0  03:29      1.63    9.04    1.00
  WS02006232WS02006231 CONDUIT    629.80     0  03:29      1.64    1.32    1.00
  WS02006234WS02006232 CONDUIT    625.78     0  03:29      1.63    1.27    1.00
  WS02006235WS02006234 CONDUIT    607.15     0  03:29      1.58    6.41    1.00
  WS02006238WS02006235 CONDUIT    425.36     0  02:45      1.46    0.95    1.00
  WS02006239WS02006238 CONDUIT    425.11     0  03:35      1.22    1.36    1.00
  WS02006240WS02006239 CONDUIT    425.45     0  03:35      1.30    1.34    1.00
  WS02006242WS02006240 CONDUIT    425.23     0  03:35      1.17    1.69    1.00
  WS02006243WS02006242 CONDUIT    424.64     0  03:35      1.43    0.91    1.00
  WS02006245WS02006243 CONDUIT    423.88     0  03:35      1.45    1.25    1.00
  WS02006247WS02006245 CONDUIT    423.34     0  03:35      1.43    3.36    1.00
  WS02006248WS02006247 CONDUIT    424.67     0  03:35      1.46    0.92    1.00
  WS02006249WS02006248 CONDUIT    423.35     0  03:35      1.39    2.32    1.00
  WS02006251WS02006249 CONDUIT    459.02     0  00:00      1.99    1.32    1.00
  WS02006252WS02006251 CONDUIT    408.67     0  03:29     24.61    1.50    1.00
  WS02006256WS02006235 CONDUIT    288.91     0  00:00      4.23    3.06    1.00
  WSF200WS02003060     CONDUIT    539.37     0  02:22      2.06    0.12    0.28
  YS02001580YS02001583 CONDUIT    114.76     0  01:52      0.63    0.44    1.00
  YS02001583YS02001586 CONDUIT    151.37     0  01:52      0.64    0.23    1.00
  YS02001586YS02001590 CONDUIT    322.86     0  02:19      1.25    0.57    1.00
  YS02001590YS02001593 CONDUIT    323.88     0  02:19      1.15    2.03    1.00
  YS02001593YS02001596 CONDUIT    318.11     0  02:12      1.73    0.50    1.00
  YS02001596YS02001600 CONDUIT    318.08     0  02:19      1.25    0.62    1.00
  YS02001600YS02001601 CONDUIT    318.36     0  02:19      1.13    0.55    1.00
  YS02001601YS02001602 CONDUIT    515.26     0  01:51      1.82    1.86    1.00
  YS02001602YS02001605 CONDUIT    515.10     0  01:51      1.82   10.90    1.00
  YS02001605YS02001607 CONDUIT    514.66     0  01:51      1.82    2.82    1.00
  YS02001607YS02001610 CONDUIT    519.14     0  01:51      0.66    0.49    1.00
  YS02001610YS02001613 CONDUIT    522.46     0  01:51      0.67    0.60    1.00
  YS02001613YS02001616 CONDUIT    519.62     0  01:51      0.67    0.45    1.00
  YS02001616YS02001619 CONDUIT    508.34     0  01:51      0.67    0.88    1.00
  YS02001619YS02001622 CONDUIT    968.82     0  02:02      1.23    1.43    1.00
  YS02001622YS02001625 CONDUIT    969.52     0  02:02      1.23    0.52    1.00
  YS02001625YS02001629 CONDUIT    921.11     0  01:51      1.19    0.44    1.00
  YS02001629YS02163301 CONDUIT    917.63     0  01:54      1.17    1.13    1.00
  YS02001633YS02163601 CONDUIT   1344.46     0  01:54      1.71    1.41    1.00
  YS02001641YS02001644 CONDUIT   1345.05     0  01:54      1.71    4.35    1.00
  YS02001644YS02001647 CONDUIT   1747.17     0  01:54      2.23    1.03    1.00
  YS02001647YS02001649 CONDUIT   1765.19     0  01:54      2.32    0.93    1.00
  YS02001649YS02001757 CONDUIT   1897.49     0  01:54      2.42    1.15    1.00
  YS02001652YS02001649 CONDUIT    954.73     0  02:01      1.22    0.47    1.00
  YS02001655YS02001652 CONDUIT    953.29     0  02:01      1.34    0.46    1.00
  YS02001658YS02001655 CONDUIT    952.79     0  02:01      1.89    0.40    1.00
  YS02001661YS02001658 CONDUIT    952.93     0  02:01      2.27    0.37    1.00
  YS02001664YS02001661 CONDUIT    950.95     0  02:01      2.23    0.30    0.82
  YS02001745YS02001748 CONDUIT    606.45     0  02:01      2.13    0.23    0.93
  YS02001748YS02001751 CONDUIT    606.58     0  02:01      1.67    0.31    1.00
  YS02001751YS02001754 CONDUIT    606.13     0  02:01      1.45    0.29    1.00
  YS02001754YS02001757 CONDUIT    606.25     0  02:01      0.77    0.24    1.00
  YS02001757CaochengTiaoxuchi CONDUIT   3195.56     0  02:00      4.07    1.38    1.00
  YS02001759YS02001757 CONDUIT   1338.23     0  02:01      1.70    0.95    1.00
  YS02001762YS02001759 CONDUIT    706.96     0  01:58      0.90    0.81    1.00
  YS02001765YS02001762 CONDUIT    704.75     0  01:58      0.90    0.66    1.00
  YS02001767YS02001765 CONDUIT    705.67     0  01:57      0.90    0.89    1.00
  YS02001770YS02001767 CONDUIT    706.63     0  01:57      0.90    2.80    1.00
  YS02001774YS02001770 CONDUIT    674.38     0  02:02      0.86    0.43    1.00
  YS02001779YS02001774 CONDUIT    675.48     0  02:02      0.86    0.34    1.00
  YS02001783YS02001784 CONDUIT   1167.24     0  02:01      2.32    1.61    1.00
  YS02001784YS02001785 CONDUIT   1169.38     0  02:01      2.33    2.72    1.00
  YS02001786YS02001788 CONDUIT   1169.32     0  02:01      2.48    2.25    0.89
  YS02001788YS02001790 CONDUIT   1183.58     0  02:00      2.72    0.87    0.84
  YS02001790YS02001791 CONDUIT   1294.66     0  02:01      3.44    1.41    0.71
  YS02001791YS02001793 CONDUIT   1250.03     0  02:00      6.75    0.54    0.45
  YS02001793JiankangQianchi CONDUIT   1260.13     0  01:59      2.53    0.10    0.65
  YS02001882YS02001884 CONDUIT     38.94     0  01:53      0.14    0.04    1.00
  YS02001884YS02001887 CONDUIT     66.03     0  01:53      0.10    0.09    1.00
  YS02001887YS02001890 CONDUIT    893.55     0  02:01      1.14    1.53    1.00
  YS02001890YS02001895 CONDUIT    518.99     0  02:02      0.66    0.24    1.00
  YS02001895YS02001898 CONDUIT    518.77     0  02:02      0.66    0.90    1.00
  YS02001898YS02001901 CONDUIT    518.77     0  02:02      0.66    0.33    1.00
  YS02001901YS02001904 CONDUIT    518.81     0  02:02      0.66    0.80    1.00
  YS02001904YS02001907 CONDUIT    518.95     0  02:02      0.66    0.18    1.00
  YS02001907YS02006553 CONDUIT    796.40     0  02:20      0.88    0.94    1.00
  YS02001910YS02001907 CONDUIT   1529.80     0  02:02      1.95    0.86    1.00
  YS02001915YS02001910 CONDUIT   1529.69     0  02:02      1.95    0.76    1.00
  YS02001918YS02001915 CONDUIT    508.72     0  02:02      0.65    0.28    1.00
  YS02001920YS02001918 CONDUIT    508.70     0  02:02      0.65    0.49    1.00
  YS02001923YS02001920 CONDUIT    505.44     0  02:02      0.69    0.23    1.00
  YS02001926YS02001923 CONDUIT    505.18     0  02:02      0.95    0.72    1.00
  YS02001929YS02001926 CONDUIT    505.17     0  02:02      1.12    0.24    1.00
  YS02006553YS02006556 CONDUIT    796.62     0  02:20      1.01    0.68    1.00
  YS02006556YS02006558 CONDUIT    797.91     0  02:20      1.02    0.63    1.00
  YS02006558YS02006561 CONDUIT   1168.21     0  01:55      4.13    2.58    1.00
  YS02006561YS02001783 CONDUIT   1167.25     0  02:01      2.32    0.60    1.00
  YS02163301YS02001633 CONDUIT    917.57     0  01:54      1.17    0.86    1.00
  YS02163601YS02164001 CONDUIT   1344.45     0  01:54      1.71    1.19    1.00
  YS02164001YS02001641 CONDUIT   1344.99     0  01:54      1.71    1.84    1.00
  CC-R1                PUMP       683.00     0  00:00              1.00
  CC-R2                PUMP       683.00     0  00:00              1.00
  CC-S1                PUMP       200.00     0  00:00              1.00
  CC-S2                PUMP       200.00     0  00:00              1.00
  JK-R1                PUMP      1000.00     0  00:00              1.00
  JK-R2                PUMP      1000.00     0  00:00              1.00
  JK-S                 PUMP       300.00     0  00:00              1.00
  
  
  ***************************
  Flow Classification Summary
  ***************************
  
  -------------------------------------------------------------------------------------
                      Adjusted    ---------- Fraction of Time in Flow Class ---------- 
                       /Actual         Up    Down  Sub   Sup   Up    Down  Norm  Inlet 
  Conduit               Length    Dry  Dry   Dry   Crit  Crit  Crit  Crit  Ltd   Ctrl  
  -------------------------------------------------------------------------------------
  1                       1.00   0.00  0.00  0.00  0.00  1.00  0.00  0.00  0.40  0.00
  WS02003060WS02003069    1.00   0.00  0.00  0.00  0.96  0.04  0.00  0.00  0.64  0.00
  WS02003066WSF200        1.00   0.13  0.00  0.00  0.00  0.87  0.00  0.00  0.74  0.00
  WS02003067WS02003066    1.00   0.10  0.02  0.00  0.88  0.00  0.00  0.00  0.00  0.00
  WS02003069WS02003072    1.00   0.00  0.00  0.00  0.99  0.01  0.00  0.00  0.72  0.00
  WS02003072WS02003073    1.00   0.00  0.00  0.00  0.00  0.00  0.00  1.00  0.00  0.00
  WS02004401WS02004402    1.00   0.02  0.00  0.00  0.98  0.00  0.00  0.00  0.00  0.00
  WS02004402WS02004403    1.00   0.02  0.00  0.00  0.97  0.00  0.00  0.00  0.00  0.00
  WS02004403WS02004404    1.00   0.00  0.03  0.00  0.97  0.00  0.00  0.00  0.00  0.00
  WS02004404WS02004405    1.00   0.00  0.00  0.00  1.00  0.00  0.00  0.00  0.02  0.00
  WS02004405WS02004406    1.00   0.00  0.00  0.00  1.00  0.00  0.00  0.00  0.00  0.00
  WS02004406WS02004407    1.00   0.00  0.05  0.00  0.95  0.00  0.00  0.00  0.00  0.00
  WS02004407WS02004409    1.00   0.05  0.00  0.00  0.94  0.01  0.00  0.00  0.94  0.00
  WS02004409WS02004410    1.00   0.05  0.00  0.00  0.95  0.00  0.00  0.00  0.03  0.00
  WS02004410WS02004411    1.00   0.05  0.00  0.00  0.95  0.00  0.00  0.00  0.01  0.00
  WS02004411WS02004412    1.00   0.05  0.00  0.00  0.95  0.00  0.00  0.00  0.00  0.00
  WS02004412WS02004413    1.00   0.05  0.00  0.00  0.94  0.00  0.00  0.00  0.01  0.00
  WS02004413WS02003067    1.00   0.06  0.04  0.00  0.00  0.00  0.90  0.00  0.00  0.00
  WS02006109WS02006110    1.00   0.00  0.01  0.00  0.98  0.00  0.01  0.00  0.00  0.00
  WS02006110WS02006113    1.00   0.01  0.01  0.00  0.98  0.00  0.00  0.00  0.00  0.00
  WS02006111WS02006112    1.00   0.02  0.00  0.00  0.98  0.00  0.00  0.00  0.98  0.00
  WS02006112WS02006115    1.00   0.02  0.00  0.00  0.97  0.00  0.00  0.00  0.00  0.00
  WS02006113WS02006111    1.00   0.02  0.00  0.00  0.00  0.98  0.00  0.00  0.19  0.00
  WS02006115WS02006116    1.00   0.02  0.00  0.00  0.97  0.00  0.00  0.01  0.00  0.00
  WS02006116WS02004401    1.00   0.02  0.00  0.00  0.98  0.00  0.00  0.00  0.00  0.00
  WS02006228WS02006109    1.00   0.00  0.00  0.00  1.00  0.00  0.00  0.00  0.01  0.00
  WS02006229WS02006228    1.00   0.00  0.00  0.00  0.99  0.00  0.00  0.01  0.00  0.00
  WS02006230WS02006229    1.00   0.00  0.00  0.00  0.99  0.00  0.00  0.01  0.01  0.00
  WS02006231WS02006230    1.00   0.00  0.00  0.00  0.28  0.00  0.72  0.00  0.00  0.00
  WS02006232WS02006231    1.00   0.00  0.00  0.00  0.98  0.00  0.01  0.00  0.00  0.00
  WS02006234WS02006232    1.00   0.00  0.00  0.00  1.00  0.00  0.00  0.00  0.06  0.00
  WS02006235WS02006234    1.00   0.00  0.00  0.00  0.91  0.00  0.09  0.00  0.00  0.00
  WS02006238WS02006235    1.00   0.00  0.00  0.00  1.00  0.00  0.00  0.00  0.00  0.00
  WS02006239WS02006238    1.00   0.00  0.00  0.00  1.00  0.00  0.00  0.00  0.16  0.00
  WS02006240WS02006239    1.00   0.00  0.00  0.00  0.75  0.00  0.00  0.25  0.04  0.00
  WS02006242WS02006240    1.00   0.00  0.00  0.00  0.98  0.00  0.02  0.00  0.00  0.00
  WS02006243WS02006242    1.00   0.00  0.00  0.00  0.98  0.00  0.00  0.02  0.43  0.00
  WS02006245WS02006243    1.00   0.00  0.00  0.00  0.86  0.00  0.00  0.14  0.01  0.00
  WS02006247WS02006245    1.00   0.00  0.00  0.00  0.98  0.00  0.00  0.02  0.00  0.00
  WS02006248WS02006247    1.00   0.00  0.00  0.00  0.98  0.00  0.00  0.02  0.35  0.00
  WS02006249WS02006248    1.00   0.00  0.00  0.00  0.57  0.00  0.43  0.00  0.00  0.00
  WS02006251WS02006249    1.00   0.00  0.00  0.00  0.99  0.01  0.00  0.00  0.45  0.00
  WS02006252WS02006251    1.00   0.00  0.50  0.00  0.14  0.00  0.35  0.00  0.00  0.00
  WS02006256WS02006235    1.00   0.00  0.00  0.00  1.00  0.00  0.00  0.00  0.00  0.00
  WSF200WS02003060        1.00   0.00  0.13  0.00  0.12  0.76  0.00  0.00  0.46  0.00
  YS02001580YS02001583    1.00   0.23  0.56  0.00  0.21  0.00  0.00  0.00  0.65  0.00
  YS02001583YS02001586    1.00   0.42  0.32  0.00  0.26  0.00  0.00  0.00  0.66  0.00
  YS02001586YS02001590    1.00   0.13  0.00  0.00  0.44  0.04  0.00  0.40  0.36  0.00
  YS02001590YS02001593    1.00   0.13  0.01  0.00  0.13  0.00  0.73  0.00  0.00  0.00
  YS02001593YS02001596    1.00   0.13  0.00  0.00  0.15  0.01  0.00  0.70  0.02  0.00
  YS02001596YS02001600    1.00   0.14  0.00  0.00  0.21  0.01  0.00  0.64  0.04  0.00
  YS02001600YS02001601    1.00   0.13  0.01  0.00  0.86  0.00  0.00  0.00  0.60  0.00
  YS02001601YS02001602    1.00   0.13  0.01  0.00  0.87  0.00  0.00  0.00  0.00  0.00
  YS02001602YS02001605    1.00   0.13  0.00  0.00  0.86  0.00  0.00  0.00  0.00  0.00
  YS02001605YS02001607    1.00   0.14  0.00  0.00  0.86  0.00  0.00  0.00  0.00  0.00
  YS02001607YS02001610    1.00   0.13  0.01  0.00  0.86  0.00  0.00  0.00  0.01  0.00
  YS02001610YS02001613    1.00   0.13  0.00  0.00  0.87  0.00  0.00  0.00  0.00  0.00
  YS02001613YS02001616    1.00   0.13  0.00  0.00  0.87  0.00  0.00  0.00  0.00  0.00
  YS02001616YS02001619    1.00   0.13  0.00  0.00  0.87  0.00  0.00  0.00  0.00  0.00
  YS02001619YS02001622    1.00   0.13  0.00  0.00  0.87  0.00  0.00  0.00  0.29  0.00
  YS02001622YS02001625    1.00   0.13  0.00  0.00  0.87  0.00  0.00  0.00  0.04  0.00
  YS02001625YS02001629    1.00   0.13  0.04  0.00  0.18  0.00  0.65  0.00  0.00  0.00
  YS02001629YS02163301    1.00   0.15  0.01  0.00  0.84  0.00  0.00  0.00  0.00  0.00
  YS02001633YS02163601    1.00   0.00  0.01  0.00  0.99  0.00  0.00  0.00  0.15  0.00
  YS02001641YS02001644    1.00   0.00  0.01  0.00  0.99  0.00  0.00  0.00  0.00  0.00
  YS02001644YS02001647    1.00   0.00  0.17  0.00  0.83  0.00  0.00  0.00  0.00  0.00
  YS02001647YS02001649    1.00   0.00  0.17  0.00  0.57  0.26  0.00  0.00  0.55  0.00
  YS02001649YS02001757    1.00   0.00  0.00  0.00  0.88  0.12  0.00  0.00  0.42  0.00
  YS02001652YS02001649    1.00   0.00  0.00  0.00  0.97  0.03  0.00  0.00  0.72  0.00
  YS02001655YS02001652    1.00   0.00  0.00  0.00  0.21  0.01  0.00  0.78  0.05  0.00
  YS02001658YS02001655    1.00   0.00  0.14  0.00  0.69  0.18  0.00  0.00  0.66  0.00
  YS02001661YS02001658    1.00   0.14  0.00  0.00  0.52  0.34  0.00  0.00  0.67  0.00
  YS02001664YS02001661    1.00   0.13  0.00  0.00  0.78  0.10  0.00  0.00  0.85  0.00
  YS02001745YS02001748    1.00   0.00  0.00  0.00  0.12  0.01  0.00  0.87  0.05  0.00
  YS02001748YS02001751    1.00   0.00  0.00  0.00  0.85  0.15  0.00  0.00  0.75  0.00
  YS02001751YS02001754    1.00   0.00  0.00  0.00  0.19  0.00  0.00  0.80  0.04  0.00
  YS02001754YS02001757    1.00   0.00  0.00  0.00  1.00  0.00  0.00  0.00  0.78  0.00
  YS02001757CaochengTiaoxuchi    1.00   0.00  0.00  0.00  1.00  0.00  0.00  0.00  0.62  0.00
  YS02001759YS02001757    1.00   0.00  0.00  0.00  0.99  0.01  0.00  0.00  0.50  0.00
  YS02001762YS02001759    1.00   0.00  0.00  0.00  1.00  0.00  0.00  0.00  0.05  0.00
  YS02001765YS02001762    1.00   0.00  0.00  0.00  1.00  0.00  0.00  0.00  0.64  0.00
  YS02001767YS02001765    1.00   0.00  0.00  0.00  1.00  0.00  0.00  0.00  0.01  0.00
  YS02001770YS02001767    1.00   0.00  0.00  0.00  1.00  0.00  0.00  0.00  0.00  0.00
  YS02001774YS02001770    1.00   0.00  0.13  0.00  0.70  0.00  0.16  0.00  0.03  0.00
  YS02001779YS02001774    1.00   0.00  0.00  0.00  1.00  0.00  0.00  0.00  0.75  0.00
  YS02001783YS02001784    1.00   0.00  0.18  0.00  0.82  0.00  0.00  0.00  0.55  0.00
  YS02001784YS02001785    1.00   0.00  0.00  0.00  1.00  0.00  0.00  0.00  0.16  0.00
  YS02001786YS02001788    1.00   0.00  0.00  0.00  0.79  0.21  0.00  0.00  0.00  0.00
  YS02001788YS02001790    1.00   0.00  0.00  0.00  0.22  0.78  0.00  0.00  0.80  0.00
  YS02001790YS02001791    1.00   0.00  0.00  0.00  0.01  0.99  0.00  0.00  0.16  0.00
  YS02001791YS02001793    1.00   0.00  0.00  0.00  0.00  1.00  0.00  0.00  0.01  0.00
  YS02001793JiankangQianchi    1.00   0.00  0.00  0.00  0.98  0.02  0.00  0.00  0.95  0.00
  YS02001882YS02001884    1.00   0.15  0.01  0.00  0.84  0.00  0.00  0.00  0.00  0.00
  YS02001884YS02001887    1.00   0.06  0.05  0.00  0.89  0.00  0.00  0.00  0.00  0.00
  YS02001887YS02001890    1.00   0.00  0.00  0.00  0.97  0.00  0.03  0.00  0.00  0.00
  YS02001890YS02001895    1.00   0.00  0.16  0.00  0.84  0.00  0.00  0.00  0.00  0.00
  YS02001895YS02001898    1.00   0.16  0.00  0.00  0.82  0.00  0.02  0.00  0.00  0.00
  YS02001898YS02001901    1.00   0.16  0.00  0.00  0.84  0.00  0.00  0.00  0.01  0.00
  YS02001901YS02001904    1.00   0.16  0.00  0.00  0.84  0.00  0.00  0.00  0.00  0.00
  YS02001904YS02001907    1.00   0.00  0.16  0.00  0.84  0.00  0.00  0.00  0.00  0.00
  YS02001907YS02006553    1.00   0.00  0.02  0.00  0.98  0.00  0.00  0.00  0.00  0.00
  YS02001910YS02001907    1.00   0.00  0.00  0.00  0.97  0.00  0.00  0.03  0.12  0.00
  YS02001915YS02001910    1.00   0.00  0.00  0.00  0.97  0.03  0.00  0.00  0.15  0.00
  YS02001918YS02001915    1.00   0.00  0.01  0.00  0.98  0.02  0.00  0.00  0.74  0.00
  YS02001920YS02001918    1.00   0.00  0.01  0.00  0.99  0.00  0.00  0.00  0.00  0.00
  YS02001923YS02001920    1.00   0.00  0.00  0.00  1.00  0.00  0.00  0.00  0.91  0.00
  YS02001926YS02001923    1.00   0.00  0.07  0.00  0.07  0.00  0.86  0.00  0.00  0.00
  YS02001929YS02001926    1.00   0.00  0.13  0.00  0.87  0.00  0.00  0.00  0.81  0.00
  YS02006553YS02006556    1.00   0.01  0.00  0.00  0.99  0.00  0.00  0.00  0.03  0.00
  YS02006556YS02006558    1.00   0.00  0.00  0.00  1.00  0.00  0.00  0.00  0.00  0.00
  YS02006558YS02006561    1.00   0.17  0.00  0.00  0.06  0.76  0.00  0.00  0.18  0.00
  YS02006561YS02001783    1.00   0.17  0.00  0.00  0.10  0.73  0.00  0.00  0.68  0.00
  YS02163301YS02001633    1.00   0.00  0.15  0.00  0.85  0.00  0.00  0.00  0.00  0.00
  YS02163601YS02164001    1.00   0.00  0.08  0.00  0.92  0.00  0.00  0.00  0.00  0.00
  YS02164001YS02001641    1.00   0.01  0.07  0.00  0.92  0.00  0.00  0.00  0.05  0.00
  
  
  *************************
  Conduit Surcharge Summary
  *************************
  
  ----------------------------------------------------------------------------
                                                           Hours        Hours 
                         --------- Hours Full --------   Above Full   Capacity
  Conduit                Both Ends  Upstream  Dnstream   Normal Flow   Limited
  ----------------------------------------------------------------------------
  WS02003072WS02003073        0.01      0.01      0.01      1.55         0.01
  WS02004403WS02004404        0.01      0.01      0.02      0.01         0.01
  WS02004404WS02004405        0.01      0.02      0.01      4.16         0.01
  WS02004405WS02004406        0.01      0.01      0.01      0.80         0.01
  WS02006109WS02006110        0.78      0.78      2.12      0.99         0.01
  WS02006110WS02006113        0.01      0.01      2.11      0.01         0.01
  WS02006111WS02006112        0.01      0.01      2.41      0.01         0.01
  WS02006112WS02006115        0.01      0.01      1.12      0.01         0.01
  WS02006228WS02006109        2.09      2.12      2.09      2.63         2.09
  WS02006229WS02006228        2.09      2.09      2.09      2.27         2.07
  WS02006230WS02006229        2.18      2.25      2.18      5.03         2.18
  WS02006231WS02006230        0.81      0.81      1.12      4.47         0.01
  WS02006232WS02006231        1.04      1.04      2.12      1.14         0.01
  WS02006234WS02006232        2.01      2.01      2.12      1.12         1.10
  WS02006235WS02006234        1.51      1.52      2.02      4.17         0.03
  WS02006238WS02006235        2.05      2.05      2.13      0.01         0.01
  WS02006239WS02006238        2.09      2.12      2.09      2.18         1.83
  WS02006240WS02006239        2.06      2.10      2.06      2.22         1.70
  WS02006242WS02006240        2.09      2.09      2.12      2.40         0.01
  WS02006243WS02006242        2.09      2.09      2.11      0.01         0.08
  WS02006245WS02006243        2.08      2.09      2.09      1.42         1.28
  WS02006247WS02006245        2.08      2.09      2.08      3.91         2.06
  WS02006248WS02006247        2.08      2.08      2.08      0.01         0.09
  WS02006249WS02006248        2.07      2.07      2.07      3.86         0.01
  WS02006251WS02006249        2.07      2.07      2.07      2.39         1.95
  WS02006252WS02006251        2.46      2.46      2.47      2.47         0.01
  WS02006256WS02006235        4.23      4.29      6.63      1.41         0.01
  YS02001580YS02001583        0.70      0.70      0.76      0.01         0.01
  YS02001583YS02001586        0.71      0.71      0.85      0.01         0.01
  YS02001586YS02001590        0.86      0.86      0.93      0.01         0.01
  YS02001590YS02001593        0.93      0.93      0.96      0.98         0.01
  YS02001593YS02001596        0.95      0.95      1.06      0.01         0.01
  YS02001596YS02001600        1.11      1.11      1.23      0.01         0.01
  YS02001600YS02001601        1.30      1.30      1.53      0.01         0.01
  YS02001601YS02001602        1.44      1.44      1.57      1.21         0.01
  YS02001602YS02001605        1.40      1.40      1.44      2.33         0.01
  YS02001605YS02001607        1.36      1.40      1.36      1.50         1.36
  YS02001607YS02001610        0.94      0.94      0.97      0.01         0.01
  YS02001610YS02001613        0.93      0.93      0.97      0.01         0.01
  YS02001613YS02001616        0.89      0.89      0.93      0.01         0.01
  YS02001616YS02001619        0.87      0.87      0.89      0.01         0.03
  YS02001619YS02001622        0.87      0.87      0.87      0.90         0.79
  YS02001622YS02001625        0.87      0.87      1.07      0.01         0.01
  YS02001625YS02001629        0.82      0.82      1.07      0.01         0.01
  YS02001629YS02163301        1.07      1.07      1.08      0.05         0.14
  YS02001633YS02163601        1.10      1.10      1.14      0.28         0.27
  YS02001641YS02001644        1.02      1.06      1.02      1.60         1.00
  YS02001644YS02001647        0.80      0.80      1.02      0.02         0.01
  YS02001647YS02001649        0.80      0.80      0.95      0.01         0.01
  YS02001649YS02001757        0.95      0.95      1.03      0.07         0.04
  YS02001652YS02001649        0.77      0.77      0.95      0.01         0.01
  YS02001655YS02001652        0.55      0.55      0.74      0.01         0.01
  YS02001658YS02001655        0.30      0.30      0.55      0.01         0.01
  YS02001661YS02001658        0.07      0.07      0.30      0.01         0.01
  YS02001664YS02001661        0.01      0.01      0.12      0.01         0.01
  YS02001745YS02001748        0.01      0.01      0.23      0.01         0.01
  YS02001748YS02001751        0.27      0.27      0.42      0.01         0.01
  YS02001751YS02001754        0.42      0.42      0.65      0.01         0.01
  YS02001754YS02001757        0.70      0.70      1.03      0.01         0.01
  YS02001757CaochengTiaoxuchi        1.03      1.03      2.11      0.37         0.37
  YS02001759YS02001757        0.93      0.93      1.03      0.01         0.01
  YS02001762YS02001759        0.90      0.90      0.93      0.01         0.02
  YS02001765YS02001762        0.85      0.85      0.90      0.01         0.01
  YS02001767YS02001765        0.82      0.82      0.85      0.01         0.02
  YS02001770YS02001767        0.81      0.81      0.82      0.60         0.55
  YS02001774YS02001770        0.78      0.78      0.88      0.01         0.01
  YS02001779YS02001774        0.63      0.63      0.88      0.01         0.01
  YS02001783YS02001784        0.58      0.60      0.58      0.76         0.58
  YS02001784YS02001785        0.47      0.58      0.47      1.02         0.47
  YS02001786YS02001788        0.01      0.47      0.01      0.88         0.01
  YS02001790YS02001791        0.01      0.01      0.01      0.56         0.01
  YS02001793JiankangQianchi        0.01      0.01      7.70      0.01         0.01
  YS02001882YS02001884        0.55      0.55      0.56      0.01         0.01
  YS02001884YS02001887        0.58      0.58      0.59      0.01         0.01
  YS02001887YS02001890        0.61      0.61      0.62      0.14         0.01
  YS02001890YS02001895        0.54      0.54      0.64      0.01         0.01
  YS02001895YS02001898        0.53      0.53      0.54      0.01         0.01
  YS02001898YS02001901        0.54      0.54      0.58      0.01         0.01
  YS02001901YS02001904        0.57      0.57      0.58      0.01         0.01
  YS02001904YS02001907        0.57      0.57      0.86      0.01         0.01
  YS02001907YS02006553        1.04      1.04      1.11      0.01         0.01
  YS02001910YS02001907        0.64      0.64      0.83      0.01         0.01
  YS02001915YS02001910        0.54      0.54      0.64      0.01         0.01
  YS02001918YS02001915        0.46      0.46      0.54      0.01         0.01
  YS02001920YS02001918        0.45      0.46      0.47      0.01         0.01
  YS02001923YS02001920        0.41      0.41      0.47      0.01         0.01
  YS02001926YS02001923        0.14      0.14      0.17      0.01         0.01
  YS02001929YS02001926        0.01      0.01      0.17      0.01         0.01
  YS02006553YS02006556        0.74      0.74      0.86      0.01         0.01
  YS02006556YS02006558        0.80      0.80      0.87      0.01         0.01
  YS02006558YS02006561        0.49      0.72      0.49      0.97         0.49
  YS02006561YS02001783        0.42      0.42      0.60      0.01         0.01
  YS02163301YS02001633        1.08      1.08      1.12      0.01         0.01
  YS02163601YS02164001        1.06      1.06      1.14      0.07         0.01
  YS02164001YS02001641        1.06      1.06      1.06      0.72         0.65
  
  
  ***************
  Pumping Summary
  ***************
  
  ---------------------------------------------------------------------------------------------------------
                                                  Min       Avg       Max     Total     Power    % Time Off
                        Percent   Number of      Flow      Flow      Flow    Volume     Usage    Pump Curve
  Pump                 Utilized   Start-Ups       LPS       LPS       LPS  10^6 ltr     Kw-hr    Low   High
  ---------------------------------------------------------------------------------------------------------
  CC-R1                   19.79           2      0.00    683.00    683.00     3.893     74.35    0.0    5.3
  CC-R2                   15.17           2      0.00    683.00    683.00     2.985     57.61    0.0    6.9
  CC-S1                   46.68           8      0.00    200.00    200.00     2.689     15.39    0.0    0.0
  CC-S2                   33.95           6      0.00    200.00    200.00     1.955     11.06    0.0    0.0
  JK-R1                    7.39          12      0.00   1000.00   1000.00     2.128     25.01    0.0    0.0
  JK-R2                    2.25           3      0.00   1000.00   1000.00     0.647      6.85    0.0    0.0
  JK-S                    17.62          23      0.00    300.00    300.00     1.522     20.26    0.0    0.0
  

  Analysis begun on:  Mon Jan 13 10:09:26 2025
  Analysis ended on:  Mon Jan 13 10:09:28 2025
  Total elapsed time: 00:00:02