
  EPA STORM WATER MANAGEMENT MODEL - VERSION 5.2 (Build 5.2.4)
  PYSWMM TOOLKIT API - VERSION v1.0 (2023-11-27)
  ------------------------------------------------------------

  WARNING 04: minimum elevation drop used for Conduit WS02004404WS02004405
  WARNING 03: negative offset ignored for Link YS02001904YS02001907
  
  ****************
  Analysis Options
  ****************
  Flow Units ............... LPS
  Process Models:
    Rainfall/Runoff ........ YES
    RDII ................... NO
    Snowmelt ............... NO
    Groundwater ............ NO
    Flow Routing ........... YES
    Ponding Allowed ........ NO
    Water Quality .......... NO
  Infiltration Method ...... HORTON
  Flow Routing Method ...... DYNWAVE
  Surcharge Method ......... EXTRAN
  Starting Date ............ 08/28/2015 08:00:00
  Ending Date .............. 08/28/2015 16:00:00
  Antecedent Dry Days ...... 8.0
  Report Time Step ......... 00:01:00
  Wet Time Step ............ 00:01:00
  Dry Time Step ............ 00:01:00
  Routing Time Step ........ 30.00 sec
  Variable Time Step ....... YES
  Maximum Trials ........... 8
  Number of Threads ........ 4
  Head Tolerance ........... 0.001500 m
  
  
  **************************        Volume         Depth
  Runoff Quantity Continuity     hectare-m            mm
  **************************     ---------       -------
  Total Precipitation ......         7.979       240.547
  Evaporation Loss .........         0.000         0.000
  Infiltration Loss ........         0.110         3.319
  Surface Runoff ...........         7.838       236.287
  Final Storage ............         0.033         1.000
  Continuity Error (%) .....        -0.025
  
  
  **************************        Volume        Volume
  Flow Routing Continuity        hectare-m      10^6 ltr
  **************************     ---------     ---------
  Dry Weather Inflow .......         0.025         0.251
  Wet Weather Inflow .......         7.836        78.361
  Groundwater Inflow .......         0.000         0.000
  RDII Inflow ..............         0.000         0.000
  External Inflow ..........         0.083         0.834
  External Outflow .........         2.751        27.515
  Flooding Loss ............         5.195        51.946
  Evaporation Loss .........         0.000         0.000
  Exfiltration Loss ........         0.000         0.000
  Initial Stored Volume ....         0.243         2.431
  Final Stored Volume ......         0.251         2.513
  Continuity Error (%) .....        -0.120
  
  
  *************************
  Highest Continuity Errors
  *************************
  Node YS02001583 (-16.62%)
  Node YS02001884 (6.02%)
  
  
  ***************************
  Time-Step Critical Elements
  ***************************
  Link WS02006252WS02006251 (46.56%)
  Link YS02001791YS02001793 (15.74%)
  Link WS02006238WS02006235 (11.67%)
  Link WS02004404WS02004405 (8.65%)
  Link WS02003066WSF200 (5.59%)
  
  
  ********************************
  Highest Flow Instability Indexes
  ********************************
  Link WS02006113WS02006111 (46)
  Link WS02006111WS02006112 (28)
  Link WS02006238WS02006235 (25)
  Link WS02004404WS02004405 (23)
  Link YS02001602YS02001605 (23)
  
  
  *********************************
  Most Frequent Nonconverging Nodes
  *********************************
  Node CC-1 (16.19%)
  Node CC-2 (16.19%)
  Node JK-1 (16.19%)
  Node JK-2 (16.19%)
  Node WSC (16.19%)
  
  
  *************************
  Routing Time Step Summary
  *************************
  Minimum Time Step           :     0.00 sec
  Average Time Step           :     1.68 sec
  Maximum Time Step           :     7.04 sec
  % of Time in Steady State   :     0.00
  Average Iterations per Step :     3.46
  % of Steps Not Converging   :    16.19
  Time Step Frequencies       :
     30.000 - 13.228 sec      :     0.00 %
     13.228 -  5.833 sec      :     1.97 %
      5.833 -  2.572 sec      :    16.21 %
      2.572 -  1.134 sec      :    30.41 %
      1.134 -  0.500 sec      :    51.41 %
  
  
  ***************************
  Subcatchment Runoff Summary
  ***************************
  
  ------------------------------------------------------------------------------------------------------------------------------
                            Total      Total      Total      Total     Imperv       Perv      Total       Total     Peak  Runoff
                           Precip      Runon       Evap      Infil     Runoff     Runoff     Runoff      Runoff   Runoff   Coeff
  Subcatchment                 mm         mm         mm         mm         mm         mm         mm    10^6 ltr      LPS
  ------------------------------------------------------------------------------------------------------------------------------
  sub60                    240.55       0.00       0.00       1.96     210.54      26.91     237.45        3.12   733.01   0.987
  sub61                    240.55       0.00       0.00       2.86     198.59      38.05     236.63        4.34  1022.21   0.984
  sub62                    240.55       0.00       0.00       1.31     220.06      17.94     238.01        6.52  1528.48   0.989
  sub63                    240.55       0.00       0.00       5.31     169.87      64.46     234.33        5.32  1254.01   0.974
  sub64                    240.55       0.00       0.00       2.68     203.29      33.41     236.70        5.69  1334.44   0.984
  sub65                    240.55       0.00       0.00       2.32     208.05      28.96     237.01        6.52  1529.23   0.985
  sub66                    240.55       0.00       0.00       6.59     169.73      63.17     232.90       10.86  2445.99   0.968
  sub67                    240.55       0.00       0.00       1.24     220.14      18.01     238.15        4.43  1039.45   0.990
  sub68                    240.55       0.00       0.00       2.37     205.73      31.31     237.05        6.52  1533.32   0.985
  sub69                    240.55       0.00       0.00       2.18     204.38      33.91     238.29        8.82  2053.47   0.991
  sub70                    240.55       0.00       0.00       7.26     158.60      74.53     233.14        6.74  1452.71   0.969
  sub71                    240.55       0.00       0.00       1.35     220.01      17.90     237.91        6.22  1455.90   0.989
  sub72                    240.55       0.00       0.00       1.20     222.33      15.64     237.96        3.27   762.42   0.989
  
  
  ******************
  Node Depth Summary
  ******************
  
  ---------------------------------------------------------------------------------
                                 Average  Maximum  Maximum  Time of Max    Reported
                                   Depth    Depth      HGL   Occurrence   Max Depth
  Node                 Type       Meters   Meters   Meters  days hr:min      Meters
  ---------------------------------------------------------------------------------
  WS02003060           JUNCTION     0.25     0.39     5.32     0  02:21        0.39
  WS02003066           JUNCTION     0.21     0.30     5.85     0  02:20        0.30
  WS02003067           JUNCTION     0.52     0.70     6.02     0  02:20        0.70
  WS02003069           JUNCTION     0.28     0.43     5.02     0  02:21        0.43
  WS02003072           JUNCTION     0.35     0.50     4.87     0  02:22        0.50
  WS02003073           JUNCTION     0.20     0.30     4.36     0  02:23        0.30
  WS02004401           JUNCTION     0.62     0.88     6.88     0  02:18        0.88
  WS02004402           JUNCTION     0.65     0.91     6.87     0  02:18        0.90
  WS02004403           JUNCTION     0.68     0.92     6.85     0  02:20        0.92
  WS02004404           JUNCTION     0.75     1.06     6.91     0  02:45        1.01
  WS02004405           JUNCTION     0.74     0.97     6.82     0  02:19        0.97
  WS02004406           JUNCTION     0.75     0.96     6.79     0  02:18        0.96
  WS02004407           JUNCTION     0.19     0.30     6.61     0  02:18        0.30
  WS02004409           JUNCTION     0.42     0.67     6.44     0  02:19        0.67
  WS02004410           JUNCTION     0.44     0.68     6.40     0  02:19        0.68
  WS02004411           JUNCTION     0.46     0.69     6.37     0  02:19        0.69
  WS02004412           JUNCTION     0.48     0.70     6.34     0  02:19        0.70
  WS02004413           JUNCTION     0.64     0.86     6.33     0  02:20        0.86
  WS02006109           JUNCTION     0.67     1.39     8.01     0  03:39        1.39
  WS02006110           JUNCTION     0.67     1.14     7.73     0  02:36        1.10
  WS02006111           JUNCTION     0.18     0.29     7.00     0  04:13        0.29
  WS02006112           JUNCTION     0.78     1.09     6.97     0  03:35        1.08
  WS02006113           JUNCTION     0.28     0.46     7.35     0  04:13        0.46
  WS02006115           JUNCTION     0.51     0.78     6.92     0  02:19        0.78
  WS02006116           JUNCTION     0.59     0.86     6.90     0  02:19        0.86
  WS02006228           JUNCTION     0.67     1.36     8.01     0  03:39        1.36
  WS02006229           JUNCTION     0.64     1.28     7.98     0  03:39        1.28
  WS02006230           JUNCTION     0.65     1.35     8.10     0  03:06        1.26
  WS02006231           JUNCTION     0.46     2.24     9.36     0  03:14        2.24
  WS02006232           JUNCTION     0.60     2.18     9.22     0  03:14        2.18
  WS02006234           JUNCTION     0.54     1.67     8.83     0  03:27        1.66
  WS02006235           JUNCTION     0.58     1.71     8.87     0  03:27        1.48
  WS02006238           JUNCTION     0.61     1.75     8.89     0  03:27        1.53
  WS02006239           JUNCTION     0.58     1.68     8.88     0  03:27        1.46
  WS02006240           JUNCTION     0.55     1.61     8.90     0  03:27        1.34
  WS02006242           JUNCTION     0.63     1.55     8.82     0  01:49        1.55
  WS02006243           JUNCTION     0.53     1.48     8.90     0  03:29        1.48
  WS02006245           JUNCTION     0.54     1.49     8.98     0  03:29        1.49
  WS02006247           JUNCTION     0.57     1.44     8.94     0  03:29        1.44
  WS02006248           JUNCTION     0.53     1.10     8.69     0  01:15        1.10
  WS02006249           JUNCTION     0.56     1.09     8.69     0  01:15        1.09
  WS02006251           JUNCTION     0.56     1.59     9.26     0  03:27        1.22
  WS02006252           JUNCTION     0.40     1.50     9.74     0  00:00        0.77
  WS02006256           JUNCTION     1.09     2.35     9.28     0  00:00        2.35
  WSF200               JUNCTION     0.18     0.29     5.53     0  02:20        0.29
  YS02001580           JUNCTION     0.19     1.05     9.59     0  01:05        1.05
  YS02001583           JUNCTION     0.23     1.14     9.64     0  01:05        0.82
  YS02001586           JUNCTION     0.32     1.13     9.30     0  01:04        1.13
  YS02001590           JUNCTION     0.43     1.40     9.26     0  01:04        1.40
  YS02001593           JUNCTION     0.36     1.44     9.31     0  01:04        1.29
  YS02001596           JUNCTION     0.47     1.76     9.18     0  01:04        1.72
  YS02001600           JUNCTION     0.53     1.87     9.00     0  01:04        1.87
  YS02001601           JUNCTION     0.71     2.06     8.90     0  01:04        2.06
  YS02001602           JUNCTION     0.62     1.87     8.77     0  01:06        1.87
  YS02001605           JUNCTION     0.58     1.78     8.68     0  01:06        1.78
  YS02001607           JUNCTION     0.58     1.68     8.53     0  01:06        1.65
  YS02001610           JUNCTION     0.63     1.68     8.48     0  01:06        1.68
  YS02001613           JUNCTION     0.59     1.70     8.54     0  01:06        1.70
  YS02001616           JUNCTION     0.52     1.61     8.52     0  01:06        1.61
  YS02001619           JUNCTION     0.50     1.61     8.54     0  01:06        1.61
  YS02001622           JUNCTION     0.49     1.62     8.52     0  01:49        1.58
  YS02001625           JUNCTION     0.76     1.78     8.38     0  01:06        1.78
  YS02001629           JUNCTION     0.63     1.85     8.40     0  01:05        1.85
  YS02001633           JUNCTION     0.72     2.08     8.53     0  01:06        2.08
  YS02001641           JUNCTION     0.72     1.99     8.43     0  01:07        1.97
  YS02001644           JUNCTION     0.72     1.92     8.35     0  01:06        1.92
  YS02001647           JUNCTION     0.53     1.90     8.51     0  01:49        1.90
  YS02001649           JUNCTION     0.60     2.05     8.44     0  01:07        2.05
  YS02001652           JUNCTION     0.50     2.16     8.76     0  01:06        1.96
  YS02001655           JUNCTION     0.43     2.20     9.05     0  01:06        1.81
  YS02001658           JUNCTION     0.34     2.05     9.19     0  01:07        1.61
  YS02001661           JUNCTION     0.32     1.85     9.25     0  01:07        1.44
  YS02001664           JUNCTION     0.13     1.36     9.29     0  01:08        0.97
  YS02001745           JUNCTION     0.21     2.15     9.67     0  01:07        0.94
  YS02001748           JUNCTION     0.34     2.27     9.35     0  01:07        1.37
  YS02001751           JUNCTION     0.40     2.20     9.08     0  01:07        1.65
  YS02001754           JUNCTION     0.48     2.20     8.81     0  01:07        1.78
  YS02001757           JUNCTION     0.65     2.21     8.47     0  01:07        2.21
  YS02001759           JUNCTION     0.60     2.21     8.57     0  01:07        2.21
  YS02001762           JUNCTION     0.58     2.15     8.55     0  01:07        2.15
  YS02001765           JUNCTION     0.56     2.10     8.55     0  01:06        2.10
  YS02001767           JUNCTION     0.55     2.03     8.52     0  01:06        1.97
  YS02001770           JUNCTION     0.56     1.95     8.44     0  01:07        1.95
  YS02001774           JUNCTION     0.63     2.05     8.47     0  01:49        2.05
  YS02001779           JUNCTION     0.46     1.68     8.37     0  01:06        1.68
  YS02001783           JUNCTION     0.35     1.39     7.53     0  01:06        1.33
  YS02001784           JUNCTION     0.35     1.24     7.31     0  01:06        1.16
  YS02001786           JUNCTION     0.28     1.04     7.07     0  01:06        0.87
  YS02001788           JUNCTION     0.20     0.66     6.64     0  01:06        0.62
  YS02001790           JUNCTION     0.23     0.73     6.37     0  01:31        0.73
  YS02001791           JUNCTION     0.14     0.45     5.92     0  01:06        0.43
  YS02001793           JUNCTION     0.08     0.31     5.14     0  01:09        0.30
  YS02001882           JUNCTION     0.48     1.83     8.55     0  01:05        1.69
  YS02001884           JUNCTION     0.58     1.93     8.55     0  01:05        1.79
  YS02001887           JUNCTION     0.65     1.95     8.49     0  01:05        1.85
  YS02001890           JUNCTION     0.68     1.81     8.32     0  01:05        1.81
  YS02001895           JUNCTION     0.44     1.75     8.50     0  01:05        1.57
  YS02001898           JUNCTION     0.45     1.77     8.51     0  01:05        1.57
  YS02001901           JUNCTION     0.57     1.82     8.43     0  01:05        1.68
  YS02001904           JUNCTION     0.55     1.68     8.31     0  01:06        1.67
  YS02001907           JUNCTION     0.87     1.96     8.25     0  01:06        1.96
  YS02001910           JUNCTION     0.69     2.01     8.52     0  01:31        2.01
  YS02001915           JUNCTION     0.51     2.00     8.72     0  01:15        2.00
  YS02001918           JUNCTION     0.37     1.81     8.88     0  01:06        1.74
  YS02001920           JUNCTION     0.45     2.12     9.13     0  01:07        2.04
  YS02001923           JUNCTION     0.32     2.03     9.29     0  01:06        2.03
  YS02001926           JUNCTION     0.31     1.90     9.35     0  01:06        1.87
  YS02001929           JUNCTION     0.22     1.78     9.47     0  01:06        1.78
  YS02006553           JUNCTION     0.88     2.04     8.32     0  01:48        1.97
  YS02006556           JUNCTION     0.85     2.09     8.40     0  01:48        1.96
  YS02006558           JUNCTION     0.89     2.11     8.37     0  01:48        2.00
  YS02006561           JUNCTION     0.25     1.19     7.85     0  01:06        0.91
  YS02163301           JUNCTION     0.66     2.03     8.55     0  01:06        2.03
  YS02163601           JUNCTION     0.77     2.08     8.48     0  01:06        2.08
  YS02164001           JUNCTION     0.70     2.01     8.47     0  01:07        1.97
  CC-1                 OUTFALL      0.00     0.00     0.00     0  00:00        0.00
  CC-2                 OUTFALL      0.00     0.00     0.00     0  00:00        0.00
  JK-1                 OUTFALL      0.00     0.00     0.00     0  00:00        0.00
  JK-2                 OUTFALL      0.00     0.00     0.00     0  00:00        0.00
  WSC                  OUTFALL      0.20     0.30     0.97     0  02:23        0.30
  CC-storage           STORAGE      1.18     2.30     7.80     0  02:30        2.30
  JK-storage           STORAGE      3.33     4.24     5.04     0  01:35        4.20
  
  
  *******************
  Node Inflow Summary
  *******************
  
  -------------------------------------------------------------------------------------------------
                                  Maximum  Maximum                  Lateral       Total        Flow
                                  Lateral    Total  Time of Max      Inflow      Inflow     Balance
                                   Inflow   Inflow   Occurrence      Volume      Volume       Error
  Node                 Type           LPS      LPS  days hr:min    10^6 ltr    10^6 ltr     Percent
  -------------------------------------------------------------------------------------------------
  WS02003060           JUNCTION     16.53   558.52     0  02:20       0.476        7.59       0.072
  WS02003066           JUNCTION      0.00   541.56     0  02:20           0        7.12       0.037
  WS02003067           JUNCTION      0.00   541.45     0  02:20           0        7.13       0.084
  WS02003069           JUNCTION      0.32   558.49     0  02:21     0.00922         7.6       0.112
  WS02003072           JUNCTION      0.00   557.97     0  02:22           0        7.59       0.163
  WS02003073           JUNCTION      1.82   559.57     0  02:22      0.0524        7.63       0.129
  WS02004401           JUNCTION      0.00   541.12     0  02:48           0        7.26       0.194
  WS02004402           JUNCTION      0.00   546.52     0  02:07           0        7.25       0.191
  WS02004403           JUNCTION      0.00   543.14     0  02:06           0        7.24       0.179
  WS02004404           JUNCTION      0.16   563.91     0  02:20     0.00467        7.23       0.043
  WS02004405           JUNCTION      0.04   612.05     0  03:01      0.0011        7.23       0.126
  WS02004406           JUNCTION      0.00   549.93     0  02:24           0        7.22       0.354
  WS02004407           JUNCTION      0.00   543.15     0  02:18           0        7.19       0.049
  WS02004409           JUNCTION      0.00   542.67     0  02:18           0        7.19       0.105
  WS02004410           JUNCTION      0.00   542.34     0  02:19           0        7.18       0.132
  WS02004411           JUNCTION      0.00   542.17     0  02:19           0        7.17       0.145
  WS02004412           JUNCTION      0.00   541.91     0  02:19           0        7.16       0.172
  WS02004413           JUNCTION      0.00   541.95     0  02:19           0        7.15       0.276
  WS02006109           JUNCTION      1.23   555.63     0  04:13      0.0354        7.33       0.133
  WS02006110           JUNCTION      0.00   556.48     0  04:13           0        7.32       0.131
  WS02006111           JUNCTION      0.00   572.46     0  04:13           0         7.3       0.026
  WS02006112           JUNCTION      0.00   549.48     0  04:13           0         7.3       0.302
  WS02006113           JUNCTION      0.00   571.27     0  01:17           0        7.31       0.052
  WS02006115           JUNCTION      0.00   554.82     0  04:13           0        7.28       0.150
  WS02006116           JUNCTION      0.00   540.20     0  02:48           0        7.27       0.087
  WS02006228           JUNCTION      0.00   552.73     0  04:13           0         7.3       0.075
  WS02006229           JUNCTION      0.00   552.46     0  03:06           0        7.31       0.116
  WS02006230           JUNCTION     10.28   593.92     0  03:14       0.296        7.31       0.072
  WS02006231           JUNCTION      0.00   578.86     0  03:06           0        7.01      -0.029
  WS02006232           JUNCTION      0.00   578.06     0  03:06           0        7.03       0.248
  WS02006234           JUNCTION      0.00   574.07     0  03:06           0        7.02      -0.134
  WS02006235           JUNCTION      0.00   566.50     0  03:06           0        7.08       0.178
  WS02006238           JUNCTION      0.00   424.44     0  03:25           0        5.41      -0.114
  WS02006239           JUNCTION      0.00   422.56     0  03:25           0        5.38      -0.137
  WS02006240           JUNCTION      0.00   420.07     0  03:40           0        5.35      -0.025
  WS02006242           JUNCTION      0.00   420.13     0  03:35           0        5.33       0.021
  WS02006243           JUNCTION      0.00   419.82     0  03:40           0        5.32       0.075
  WS02006245           JUNCTION      0.00   419.06     0  03:35           0        5.34       0.363
  WS02006247           JUNCTION      0.00   420.11     0  03:25           0        5.34       0.025
  WS02006248           JUNCTION      0.00   421.58     0  03:25           0        5.34       0.087
  WS02006249           JUNCTION      0.00   459.02     0  00:00           0        5.87       0.287
  WS02006251           JUNCTION      0.08   406.74     0  03:47     0.00222        5.87      -0.026
  WS02006252           JUNCTION      0.00   400.00     0  00:00           0        5.87      -0.030
  WS02006256           JUNCTION      0.00   300.00     0  00:00           0        2.57      -0.553
  WSF200               JUNCTION      0.00   541.65     0  02:20           0        7.12       0.023
  YS02001580           JUNCTION      0.00   349.39     0  01:05           0     0.00549     -10.985
  YS02001583           JUNCTION      0.00   354.76     0  01:04           0      0.0159     -14.254
  YS02001586           JUNCTION   1452.71  1452.71     0  01:34        6.73        6.75       0.024
  YS02001590           JUNCTION      0.00   360.33     0  01:04           0         2.7      -0.042
  YS02001593           JUNCTION      0.00   368.38     0  01:04           0         2.7       0.023
  YS02001596           JUNCTION      0.00   318.02     0  02:16           0         2.7      -0.031
  YS02001600           JUNCTION      0.00   318.24     0  01:49           0        2.71       0.033
  YS02001601           JUNCTION   2053.47  2371.15     0  01:31        8.82        11.5       0.009
  YS02001602           JUNCTION      0.00   637.71     0  01:04           0        3.61       0.019
  YS02001605           JUNCTION      0.00   638.05     0  01:04           0        3.16       0.025
  YS02001607           JUNCTION      0.00   637.64     0  01:04           0        3.16       0.033
  YS02001610           JUNCTION      0.00   955.58     0  01:49           0        5.68       0.039
  YS02001613           JUNCTION      0.00   619.10     0  01:49           0        3.51       0.016
  YS02001616           JUNCTION      0.00   623.32     0  01:49           0        3.53      -0.026
  YS02001619           JUNCTION   2445.99  2445.99     0  01:33        10.9        11.8      -0.002
  YS02001622           JUNCTION      0.00  1147.70     0  01:05           0        7.97      -0.018
  YS02001625           JUNCTION      0.00  1505.50     0  01:37           0        9.84       0.042
  YS02001629           JUNCTION      0.00   955.09     0  01:05           0        4.03       0.054
  YS02001633           JUNCTION   1529.43  1529.43     0  01:31        6.53        7.99       0.040
  YS02001641           JUNCTION      0.00  1129.32     0  01:06           0        5.42       0.043
  YS02001644           JUNCTION   1334.48  2517.70     0  01:32        5.69        11.9       0.011
  YS02001647           JUNCTION      0.00  1839.00     0  01:06           0        4.77      -0.008
  YS02001649           JUNCTION      0.00  2188.79     0  01:06           0        9.33       0.007
  YS02001652           JUNCTION      0.00  1254.84     0  01:31           0        5.34      -0.110
  YS02001655           JUNCTION      0.15  1254.77     0  01:30     0.00443        5.34       0.038
  YS02001658           JUNCTION      0.00  1255.02     0  01:30           0        5.33      -0.010
  YS02001661           JUNCTION      0.00  1254.47     0  01:31           0        5.32      -0.307
  YS02001664           JUNCTION   1254.01  1254.01     0  01:31        5.32        5.32       0.026
  YS02001745           JUNCTION    733.01   733.01     0  01:31        3.12        3.12       0.068
  YS02001748           JUNCTION      0.04   922.21     0  01:07      0.0013        3.12      -0.107
  YS02001751           JUNCTION      0.01  1093.54     0  01:06    0.000317        3.13      -0.021
  YS02001754           JUNCTION      0.26   874.35     0  01:07     0.00749        3.14      -0.291
  YS02001757           JUNCTION      0.00  3612.95     0  01:08           0          19       0.032
  YS02001759           JUNCTION   1022.25  1495.83     0  01:07        4.34        7.29      -0.008
  YS02001762           JUNCTION      0.00   720.98     0  01:07           0        2.95      -0.021
  YS02001765           JUNCTION      0.00   727.20     0  01:07           0        2.95      -0.009
  YS02001767           JUNCTION      0.54   767.48     0  01:06      0.0154        2.94      -0.015
  YS02001770           JUNCTION   1528.63  1528.63     0  01:31        6.52        6.57      -0.017
  YS02001774           JUNCTION      0.00   852.18     0  01:35           0        3.13       0.038
  YS02001779           JUNCTION      0.01   851.77     0  01:37    0.000144        3.09      -0.026
  YS02001783           JUNCTION      0.00  1166.52     0  01:48           0           9       0.003
  YS02001784           JUNCTION      1.06  1167.34     0  01:16      0.0305        9.03       0.004
  YS02001786           JUNCTION      0.06  1167.08     0  01:16     0.00162        9.03       0.007
  YS02001788           JUNCTION      0.07  1170.86     0  01:48     0.00204        9.04       0.003
  YS02001790           JUNCTION      0.15  1213.21     0  01:06     0.00446        9.04       0.051
  YS02001791           JUNCTION      0.00  1301.25     0  01:31           0        9.04      -0.067
  YS02001793           JUNCTION      0.00  1285.88     0  01:06           0        9.04      -0.002
  YS02001882           JUNCTION      0.00   183.36     0  01:05           0      0.0133       4.392
  YS02001884           JUNCTION      0.00   348.52     0  01:05           0      0.0503       6.404
  YS02001887           JUNCTION   1039.90  1040.47     0  01:30        4.44        4.47       0.086
  YS02001890           JUNCTION      0.00  1040.89     0  01:30           0        4.43       0.120
  YS02001895           JUNCTION      0.00   579.05     0  01:06           0        3.17       0.125
  YS02001898           JUNCTION      0.00   574.08     0  01:06           0        3.16      -0.089
  YS02001901           JUNCTION      0.00   560.47     0  01:06           0        3.18       0.123
  YS02001904           JUNCTION      0.00   560.40     0  01:06           0        3.21       0.090
  YS02001907           JUNCTION      0.00  2881.01     0  01:31           0        13.2       0.138
  YS02001910           JUNCTION      0.00  1993.20     0  01:25           0        9.35       0.080
  YS02001915           JUNCTION   1455.92  2221.39     0  01:31        6.22        9.64       0.009
  YS02001918           JUNCTION      0.00  1084.58     0  01:06           0        3.46      -0.026
  YS02001920           JUNCTION      2.87  1035.65     0  01:06      0.0827        3.42      -0.041
  YS02001923           JUNCTION      0.04  1549.03     0  01:06     0.00109        3.32      -0.124
  YS02001926           JUNCTION      0.05  1535.81     0  01:06      0.0015        3.29      -0.044
  YS02001929           JUNCTION    762.42  1138.41     0  01:06        3.27        3.28      -0.091
  YS02006553           JUNCTION      0.00   806.74     0  03:01           0        3.75       0.326
  YS02006556           JUNCTION      0.00   807.42     0  03:01           0        3.78       0.245
  YS02006558           JUNCTION   1534.20  1534.20     0  01:31        6.55        9.67       0.037
  YS02006561           JUNCTION      0.00  1199.35     0  01:06           0           9       0.001
  YS02163301           JUNCTION      0.00   809.90     0  01:30           0        4.05       0.033
  YS02163601           JUNCTION      0.11  1123.40     0  01:06     0.00317        5.39       0.089
  YS02164001           JUNCTION      0.00  1124.42     0  01:06           0         5.4       0.037
  CC-1                 OUTFALL       0.00   683.00     0  00:00           0        7.01       0.000
  CC-2                 OUTFALL       0.00   683.00     0  00:00           0        6.43       0.000
  JK-1                 OUTFALL       0.00  1000.00     0  00:00           0        5.63       0.000
  JK-2                 OUTFALL       0.00  1000.00     0  00:00           0       0.831       0.000
  WSC                  OUTFALL       0.00   559.43     0  02:23           0        7.62       0.000
  CC-storage           STORAGE       0.00  3613.69     0  01:08           0        21.2      -0.106
  JK-storage           STORAGE       0.00  1284.68     0  01:06           0        9.19       0.031
  
  
  **********************
  Node Surcharge Summary
  **********************
  
  Surcharging occurs when water rises above the top of the highest conduit.
  ---------------------------------------------------------------------
                                               Max. Height   Min. Depth
                                   Hours       Above Crown    Below Rim
  Node                 Type      Surcharged         Meters       Meters
  ---------------------------------------------------------------------
  WS02004404           JUNCTION        0.13          0.061        2.719
  WS02006109           JUNCTION        3.09          0.572        1.248
  WS02006110           JUNCTION        1.79          0.233        1.617
  WS02006112           JUNCTION        2.15          0.090        1.590
  WS02006228           JUNCTION        3.09          0.525        1.675
  WS02006229           JUNCTION        3.09          0.481        1.969
  WS02006230           JUNCTION        1.77          0.271        1.299
  WS02006231           JUNCTION        2.05          1.530        0.000
  WS02006232           JUNCTION        3.12          1.480        0.000
  WS02006234           JUNCTION        2.44          0.950        0.290
  WS02006235           JUNCTION        3.03          1.001        0.289
  WS02006238           JUNCTION        3.09          1.030        0.400
  WS02006239           JUNCTION        3.06          0.935        0.355
  WS02006240           JUNCTION        3.09          0.895        0.495
  WS02006242           JUNCTION        3.11          0.820        0.000
  WS02006243           JUNCTION        3.09          0.770        0.000
  WS02006245           JUNCTION        3.09          0.781        0.069
  WS02006247           JUNCTION        3.09          0.734        0.026
  WS02006248           JUNCTION        3.08          0.380        0.000
  WS02006249           JUNCTION        3.08          0.390        0.000
  WS02006251           JUNCTION        2.20          0.555        0.625
  WS02006252           JUNCTION        3.33          1.100        0.000
  WS02006256           JUNCTION        7.05          2.050        0.000
  YS02001580           JUNCTION        2.02          0.450        0.000
  YS02001583           JUNCTION        2.03          0.500        0.000
  YS02001586           JUNCTION        2.12          0.510        0.000
  YS02001590           JUNCTION        2.17          0.750        0.000
  YS02001593           JUNCTION        2.17          0.823        0.017
  YS02001596           JUNCTION        2.23          1.032        0.038
  YS02001600           JUNCTION        2.32          1.190        0.000
  YS02001601           JUNCTION        2.50          1.440        0.000
  YS02001602           JUNCTION        2.46          1.270        0.000
  YS02001605           JUNCTION        2.44          1.180        0.000
  YS02001607           JUNCTION        2.20          0.680        0.000
  YS02001610           JUNCTION        2.22          0.680        0.000
  YS02001613           JUNCTION        2.20          0.700        0.000
  YS02001616           JUNCTION        2.17          0.610        0.000
  YS02001619           JUNCTION        2.16          0.610        0.000
  YS02001622           JUNCTION        2.17          0.620        0.000
  YS02001625           JUNCTION        2.31          0.780        0.000
  YS02001629           JUNCTION        2.15          0.470        0.000
  YS02001633           JUNCTION        2.36          1.060        0.000
  YS02001641           JUNCTION        2.37          0.992        0.108
  YS02001644           JUNCTION        2.36          0.920        0.000
  YS02001647           JUNCTION        2.25          0.900        0.000
  YS02001649           JUNCTION        2.38          1.050        0.000
  YS02001652           JUNCTION        2.22          1.130        0.000
  YS02001655           JUNCTION        2.09          1.200        0.000
  YS02001658           JUNCTION        1.91          1.046        0.254
  YS02001661           JUNCTION        0.85          0.777        0.613
  YS02001664           JUNCTION        0.01          0.362        0.948
  YS02001745           JUNCTION        0.01          1.151        0.199
  YS02001748           JUNCTION        1.89          1.190        0.000
  YS02001751           JUNCTION        2.05          1.200        0.000
  YS02001754           JUNCTION        2.19          1.150        0.000
  YS02001757           JUNCTION        2.45          1.210        0.000
  YS02001759           JUNCTION        2.38          1.210        0.000
  YS02001762           JUNCTION        2.36          1.150        0.000
  YS02001765           JUNCTION        2.32          1.100        0.000
  YS02001767           JUNCTION        2.29          1.030        0.000
  YS02001770           JUNCTION        2.27          0.920        0.000
  YS02001774           JUNCTION        2.34          1.050        0.000
  YS02001779           JUNCTION        2.17          0.680        0.000
  YS02001783           JUNCTION        1.99          0.586        1.014
  YS02001784           JUNCTION        1.98          0.440        1.050
  YS02001786           JUNCTION        1.93          0.244        1.186
  YS02001882           JUNCTION        1.97          0.830        0.000
  YS02001884           JUNCTION        1.97          0.870        0.000
  YS02001887           JUNCTION        1.99          0.903        0.047
  YS02001890           JUNCTION        2.00          0.760        0.000
  YS02001895           JUNCTION        1.96          0.750        0.000
  YS02001898           JUNCTION        1.95          0.740        0.000
  YS02001901           JUNCTION        1.98          0.817        0.053
  YS02001904           JUNCTION        1.98          0.681        0.169
  YS02001907           JUNCTION        2.07          0.950        0.000
  YS02001910           JUNCTION        2.01          1.014        0.086
  YS02001915           JUNCTION        1.96          1.000        0.000
  YS02001918           JUNCTION        1.92          0.810        0.000
  YS02001920           JUNCTION        1.93          1.117        0.023
  YS02001923           JUNCTION        0.93          0.820        0.000
  YS02001926           JUNCTION        1.04          0.900        0.000
  YS02001929           JUNCTION        0.66          0.780        0.000
  YS02006553           JUNCTION        2.08          1.041        0.149
  YS02006556           JUNCTION        2.04          1.047        0.303
  YS02006558           JUNCTION        2.03          1.007        0.393
  YS02006561           JUNCTION        1.90          0.389        0.761
  YS02163301           JUNCTION        2.34          1.030        0.000
  YS02163601           JUNCTION        2.40          1.080        0.000
  YS02164001           JUNCTION        2.36          1.014        0.086
  
  
  *********************
  Node Flooding Summary
  *********************
  
  Flooding refers to all water that overflows a node, whether it ponds or not.
  --------------------------------------------------------------------------
                                                             Total   Maximum
                                 Maximum   Time of Max       Flood    Ponded
                        Hours       Rate    Occurrence      Volume     Depth
  Node                 Flooded       LPS   days hr:min    10^6 ltr    Meters
  --------------------------------------------------------------------------
  WS02006231              0.01     30.07      0  03:14       0.000     0.000
  WS02006232              0.01      9.16      0  03:14       0.000     0.000
  WS02006242              0.01      5.95      0  03:27       0.000     0.000
  WS02006243              0.01      0.11      0  03:29       0.000     0.000
  WS02006248              0.03     21.83      0  01:15       0.001     0.000
  WS02006249              2.14     95.32      0  04:13       0.516     0.000
  WS02006252              0.01    245.63      0  00:00       0.000     0.000
  WS02006256              2.37    293.19      0  00:00       0.868     0.000
  YS02001580              0.01    334.73      0  01:05       0.002     0.000
  YS02001583              0.01    264.95      0  01:05       0.001     0.000
  YS02001586              1.97   1135.21      0  01:34       4.039     0.000
  YS02001590              0.01    225.60      0  01:04       0.001     0.000
  YS02001600              0.01     24.88      0  01:04       0.000     0.000
  YS02001601              2.07   1973.28      0  01:31       7.904     0.000
  YS02001602              2.05     62.46      0  01:49       0.451     0.000
  YS02001605              0.01      8.25      0  01:06       0.000     0.000
  YS02001607              0.01    517.56      0  01:06       0.006     0.000
  YS02001610              1.99    955.27      0  01:49       4.703     0.000
  YS02001613              0.01    221.29      0  01:06       0.001     0.000
  YS02001616              0.17    242.85      0  01:06       0.004     0.000
  YS02001619              0.80    776.50      0  01:33       1.327     0.000
  YS02001622              0.01      8.64      0  01:49       0.000     0.000
  YS02001625              2.02   1505.27      0  01:26       8.386     0.000
  YS02001629              0.86    357.69      0  01:31       0.722     0.000
  YS02001633              0.01      6.12      0  01:06       0.000     0.000
  YS02001644              1.87   2517.28      0  01:32       7.848     0.000
  YS02001647              0.01      0.41      0  01:49       0.000     0.000
  YS02001649              0.01    179.94      0  01:07       0.002     0.000
  YS02001652              0.01    607.70      0  01:06       0.002     0.000
  YS02001655              0.01    420.05      0  01:06       0.001     0.000
  YS02001748              0.01    150.30      0  01:07       0.000     0.000
  YS02001751              0.01     73.51      0  01:07       0.000     0.000
  YS02001754              0.01    484.30      0  01:07       0.001     0.000
  YS02001757              0.01     45.68      0  01:07       0.000     0.000
  YS02001759              0.01     16.89      0  01:07       0.000     0.000
  YS02001762              0.01     25.32      0  01:07       0.000     0.000
  YS02001765              0.01    196.06      0  01:06       0.000     0.000
  YS02001767              0.01    266.46      0  01:06       0.000     0.000
  YS02001770              0.54    435.41      0  01:32       0.526     0.000
  YS02001774              0.01      1.27      0  01:49       0.000     0.000
  YS02001779              1.52    851.48      0  01:37       3.071     0.000
  YS02001882              0.01     58.75      0  01:05       0.000     0.000
  YS02001884              0.01     25.93      0  01:05       0.000     0.000
  YS02001890              1.06    524.26      0  01:30       1.262     0.000
  YS02001895              0.01     63.52      0  01:05       0.000     0.000
  YS02001898              0.01    285.55      0  01:05       0.001     0.000
  YS02001907              1.88   2880.99      0  01:31       9.981     0.000
  YS02001915              0.41    229.08      0  01:31       0.236     0.000
  YS02001918              0.01    527.42      0  01:06       0.006     0.000
  YS02001923              0.01   1000.01      0  01:06       0.003     0.000
  YS02001926              0.01    498.59      0  01:06       0.001     0.000
  YS02001929              0.01    956.71      0  01:06       0.009     0.000
  YS02163301              0.01     40.92      0  01:06       0.000     0.000
  YS02163601              0.01     12.98      0  01:07       0.000     0.000
  CC-storage              0.48    100.64      0  02:30       0.058     0.000
  
  
  **********************
  Storage Volume Summary
  **********************
  
  ------------------------------------------------------------------------------------------------
                         Average    Avg   Evap  Exfil     Maximum    Max    Time of Max    Maximum
                          Volume   Pcnt   Pcnt   Pcnt      Volume   Pcnt     Occurrence    Outflow
  Storage Unit           1000 m³   Full   Loss   Loss     1000 m³   Full    days hr:min        LPS
  ------------------------------------------------------------------------------------------------
  CC-storage               3.302   51.5    0.0    0.0       6.410  100.0       0  02:30    1783.53
  JK-storage               0.167   57.4    0.0    0.0       0.213   73.1       0  01:35    2300.00
  
  
  ***********************
  Outfall Loading Summary
  ***********************
  
  -----------------------------------------------------------
                         Flow       Avg       Max       Total
                         Freq      Flow      Flow      Volume
  Outfall Node           Pcnt       LPS       LPS    10^6 ltr
  -----------------------------------------------------------
  CC-1                  31.94    683.00    683.00       7.013
  CC-2                  29.44    683.00    683.00       6.426
  JK-1                  18.28   1000.00   1000.00       5.626
  JK-2                   2.71   1000.00   1000.00       0.831
  WSC                   99.96    288.30    559.43       7.619
  -----------------------------------------------------------
  System                36.47   3654.30   3925.13      27.515
  
  
  ********************
  Link Flow Summary
  ********************
  
  -----------------------------------------------------------------------------
                                 Maximum  Time of Max   Maximum    Max/    Max/
                                  |Flow|   Occurrence   |Veloc|    Full    Full
  Link                 Type          LPS  days hr:min     m/sec    Flow   Depth
  -----------------------------------------------------------------------------
  1                    CONDUIT    559.43     0  02:23      2.83    0.19    0.30
  WS02003060WS02003069 CONDUIT    558.17     0  02:21      1.64    0.22    0.34
  WS02003066WSF200     CONDUIT    541.65     0  02:20      2.86    0.09    0.22
  WS02003067WS02003066 CONDUIT    541.56     0  02:20      1.21    0.17    0.42
  WS02003069WS02003072 CONDUIT    557.97     0  02:22      1.37    0.27    0.39
  WS02003072WS02003073 CONDUIT    557.75     0  02:22      1.44    1.20    0.38
  WS02004401WS02004402 CONDUIT    546.52     0  02:07      0.98    0.66    0.89
  WS02004402WS02004403 CONDUIT    543.14     0  02:06      0.97    0.78    0.91
  WS02004403WS02004404 CONDUIT    563.74     0  02:20      0.92    0.41    0.96
  WS02004404WS02004405 CONDUIT    612.01     0  03:01      1.08    6.00    0.98
  WS02004405WS02004406 CONDUIT    549.93     0  02:24      0.99    1.08    0.96
  WS02004406WS02004407 CONDUIT    543.15     0  02:18      1.05    0.24    0.63
  WS02004407WS02004409 CONDUIT    542.67     0  02:18      1.57    0.19    0.48
  WS02004409WS02004410 CONDUIT    542.34     0  02:19      1.04    0.70    0.68
  WS02004410WS02004411 CONDUIT    542.17     0  02:19      1.01    0.74    0.69
  WS02004411WS02004412 CONDUIT    541.91     0  02:19      0.97    0.77    0.70
  WS02004412WS02004413 CONDUIT    541.95     0  02:19      0.82    0.36    0.78
  WS02004413WS02003067 CONDUIT    541.45     0  02:20      1.12    0.23    0.59
  WS02006109WS02006110 CONDUIT    556.48     0  04:13      1.11    1.07    1.00
  WS02006110WS02006113 CONDUIT    571.27     0  01:17      1.38    0.52    0.79
  WS02006111WS02006112 CONDUIT    549.48     0  04:13      1.81    0.26    0.67
  WS02006112WS02006115 CONDUIT    554.82     0  04:13      0.89    0.33    0.88
  WS02006113WS02006111 CONDUIT    572.46     0  04:13      2.48    0.69    0.47
  WS02006115WS02006116 CONDUIT    540.20     0  02:48      1.14    0.69    0.79
  WS02006116WS02004401 CONDUIT    541.12     0  02:48      1.00    0.75    0.87
  WS02006228WS02006109 CONDUIT    554.40     0  04:13      1.10    2.42    1.00
  WS02006229WS02006228 CONDUIT    552.73     0  04:13      1.14    1.83    1.00
  WS02006230WS02006229 CONDUIT    552.46     0  03:06      1.44   12.29    1.00
  WS02006231WS02006230 CONDUIT    583.64     0  03:14      1.58    8.85    1.00
  WS02006232WS02006231 CONDUIT    578.86     0  03:06      1.51    1.21    1.00
  WS02006234WS02006232 CONDUIT    578.06     0  03:06      1.50    1.17    1.00
  WS02006235WS02006234 CONDUIT    574.07     0  03:06      1.49    6.06    1.00
  WS02006238WS02006235 CONDUIT    426.31     0  03:25      1.54    0.95    1.00
  WS02006239WS02006238 CONDUIT    424.44     0  03:25      1.20    1.36    1.00
  WS02006240WS02006239 CONDUIT    422.56     0  03:25      1.29    1.33    1.00
  WS02006242WS02006240 CONDUIT    420.07     0  03:40      1.17    1.67    1.00
  WS02006243WS02006242 CONDUIT    420.13     0  03:35      1.42    0.90    1.00
  WS02006245WS02006243 CONDUIT    419.82     0  03:40      1.45    1.24    1.00
  WS02006247WS02006245 CONDUIT    419.06     0  03:35      1.43    3.32    1.00
  WS02006248WS02006247 CONDUIT    420.11     0  03:25      1.46    0.91    1.00
  WS02006249WS02006248 CONDUIT    421.58     0  03:25      1.37    2.31    1.00
  WS02006251WS02006249 CONDUIT    459.02     0  00:00      1.99    1.32    1.00
  WS02006252WS02006251 CONDUIT    406.66     0  03:47     24.61    1.49    1.00
  WS02006256WS02006235 CONDUIT    289.17     0  01:09      4.23    3.06    1.00
  WSF200WS02003060     CONDUIT    541.99     0  02:20      2.07    0.12    0.28
  YS02001580YS02001583 CONDUIT    349.39     0  01:05      1.32    1.35    1.00
  YS02001583YS02001586 CONDUIT    354.76     0  01:04      1.51    0.54    1.00
  YS02001586YS02001590 CONDUIT    318.43     0  02:25      1.48    0.56    1.00
  YS02001590YS02001593 CONDUIT    318.36     0  02:52      1.13    2.00    1.00
  YS02001593YS02001596 CONDUIT    318.02     0  02:16      1.64    0.50    1.00
  YS02001596YS02001600 CONDUIT    318.24     0  01:49      1.22    0.62    1.00
  YS02001600YS02001601 CONDUIT    318.36     0  01:49      1.13    0.55    1.00
  YS02001601YS02001602 CONDUIT    637.71     0  01:04      2.26    2.30    1.00
  YS02001602YS02001605 CONDUIT    638.05     0  01:04      2.26   13.50    1.00
  YS02001605YS02001607 CONDUIT    637.64     0  01:04      2.26    3.50    1.00
  YS02001607YS02001610 CONDUIT    722.00     0  01:05      1.10    0.69    1.00
  YS02001610YS02001613 CONDUIT    619.37     0  01:49      0.93    0.71    1.00
  YS02001613YS02001616 CONDUIT    619.10     0  01:49      0.99    0.53    1.00
  YS02001616YS02001619 CONDUIT    623.32     0  01:49      1.00    1.08    1.00
  YS02001619YS02001622 CONDUIT   1147.70     0  01:05      2.36    1.69    1.00
  YS02001622YS02001625 CONDUIT   1053.71     0  01:37      1.39    0.56    1.00
  YS02001625YS02001629 CONDUIT    955.09     0  01:05      1.36    0.45    1.00
  YS02001629YS02163301 CONDUIT    809.56     0  01:30      1.03    1.00    1.00
  YS02001633YS02163601 CONDUIT   1123.29     0  01:06      1.43    1.18    1.00
  YS02001641YS02001644 CONDUIT   1135.52     0  01:06      1.45    3.67    1.00
  YS02001644YS02001647 CONDUIT   1839.00     0  01:06      2.34    1.08    1.00
  YS02001647YS02001649 CONDUIT   1843.40     0  01:06      2.35    0.97    1.00
  YS02001649YS02001757 CONDUIT   1929.52     0  01:06      2.46    1.17    1.00
  YS02001652YS02001649 CONDUIT   1255.26     0  01:30      1.80    0.62    1.00
  YS02001655YS02001652 CONDUIT   1254.84     0  01:31      2.20    0.61    1.00
  YS02001658YS02001655 CONDUIT   1254.62     0  01:30      2.38    0.53    1.00
  YS02001661YS02001658 CONDUIT   1255.02     0  01:30      2.68    0.49    1.00
  YS02001664YS02001661 CONDUIT   1254.47     0  01:31      2.68    0.39    1.00
  YS02001745YS02001748 CONDUIT    734.73     0  01:31      2.59    0.28    1.00
  YS02001748YS02001751 CONDUIT    734.66     0  01:31      2.09    0.37    1.00
  YS02001751YS02001754 CONDUIT    733.89     0  01:31      2.08    0.35    1.00
  YS02001754YS02001757 CONDUIT    734.29     0  01:31      1.50    0.30    1.00
  YS02001757CaochengTiaoxuchi CONDUIT   3613.69     0  01:08      4.82    1.56    1.00
  YS02001759YS02001757 CONDUIT   1508.55     0  01:07      1.92    1.07    1.00
  YS02001762YS02001759 CONDUIT    731.80     0  01:07      0.93    0.84    1.00
  YS02001765YS02001762 CONDUIT    720.98     0  01:07      0.92    0.68    1.00
  YS02001767YS02001765 CONDUIT    727.20     0  01:07      0.98    0.91    1.00
  YS02001770YS02001767 CONDUIT    766.94     0  01:06      1.14    3.04    1.00
  YS02001774YS02001770 CONDUIT    852.18     0  01:35      1.09    0.54    1.00
  YS02001779YS02001774 CONDUIT    851.76     0  01:37      1.08    0.43    1.00
  YS02001783YS02001784 CONDUIT   1166.28     0  01:16      2.32    1.61    1.00
  YS02001784YS02001785 CONDUIT   1167.03     0  01:16      2.32    2.72    1.00
  YS02001786YS02001788 CONDUIT   1170.78     0  01:48      2.49    2.26    0.91
  YS02001788YS02001790 CONDUIT   1213.05     0  01:06      2.72    0.89    0.84
  YS02001790YS02001791 CONDUIT   1301.25     0  01:31      3.45    1.42    0.72
  YS02001791YS02001793 CONDUIT   1285.88     0  01:06      6.86    0.55    0.45
  YS02001793JiankangQianchi CONDUIT   1284.68     0  01:06      2.57    0.10    0.66
  YS02001882YS02001884 CONDUIT    183.36     0  01:05      0.65    0.21    1.00
  YS02001884YS02001887 CONDUIT    348.52     0  01:05      0.65    0.46    1.00
  YS02001887YS02001890 CONDUIT   1040.89     0  01:30      1.33    1.78    1.00
  YS02001890YS02001895 CONDUIT    579.05     0  01:06      0.89    0.27    1.00
  YS02001895YS02001898 CONDUIT    574.08     0  01:06      0.97    1.00    1.00
  YS02001898YS02001901 CONDUIT    560.47     0  01:06      0.72    0.36    1.00
  YS02001901YS02001904 CONDUIT    560.40     0  01:06      1.07    0.87    1.00
  YS02001904YS02001907 CONDUIT    562.62     0  01:06      0.76    0.20    1.00
  YS02001907YS02006553 CONDUIT    806.74     0  03:01      0.90    0.95    1.00
  YS02001910YS02001907 CONDUIT   1993.05     0  01:37      2.54    1.12    1.00
  YS02001915YS02001910 CONDUIT   1993.20     0  01:25      2.54    0.99    1.00
  YS02001918YS02001915 CONDUIT   1084.58     0  01:06      1.39    0.60    1.00
  YS02001920YS02001918 CONDUIT   1018.45     0  01:06      1.30    0.99    1.00
  YS02001923YS02001920 CONDUIT   1123.43     0  01:06      1.52    0.50    1.00
  YS02001926YS02001923 CONDUIT   1208.60     0  01:06      1.68    1.73    1.00
  YS02001929YS02001926 CONDUIT    800.81     0  01:06      1.35    0.38    1.00
  YS02006553YS02006556 CONDUIT    807.42     0  03:01      1.03    0.69    1.00
  YS02006556YS02006558 CONDUIT    808.64     0  03:01      1.03    0.64    1.00
  YS02006558YS02006561 CONDUIT   1199.35     0  01:06      4.26    2.65    1.00
  YS02006561YS02001783 CONDUIT   1166.52     0  01:48      2.32    0.60    1.00
  YS02163301YS02001633 CONDUIT    809.90     0  01:30      1.03    0.76    1.00
  YS02163601YS02164001 CONDUIT   1124.42     0  01:06      1.43    1.00    1.00
  YS02164001YS02001641 CONDUIT   1129.32     0  01:06      1.44    1.54    1.00
  CC-R1                PUMP       683.00     0  00:00              1.00
  CC-R2                PUMP       683.00     0  00:00              1.00
  CC-S1                PUMP       200.00     0  00:00              1.00
  CC-S2                PUMP       200.00     0  00:00              1.00
  JK-R1                PUMP      1000.00     0  00:00              1.00
  JK-R2                PUMP      1000.00     0  00:00              1.00
  JK-S                 PUMP       300.00     0  00:00              1.00
  
  
  ***************************
  Flow Classification Summary
  ***************************
  
  -------------------------------------------------------------------------------------
                      Adjusted    ---------- Fraction of Time in Flow Class ---------- 
                       /Actual         Up    Down  Sub   Sup   Up    Down  Norm  Inlet 
  Conduit               Length    Dry  Dry   Dry   Crit  Crit  Crit  Crit  Ltd   Ctrl  
  -------------------------------------------------------------------------------------
  1                       1.00   0.00  0.00  0.00  0.00  1.00  0.00  0.00  0.36  0.00
  WS02003060WS02003069    1.00   0.00  0.00  0.00  0.98  0.02  0.00  0.00  0.55  0.00
  WS02003066WSF200        1.00   0.13  0.00  0.00  0.00  0.87  0.00  0.00  0.63  0.00
  WS02003067WS02003066    1.00   0.10  0.02  0.00  0.88  0.00  0.00  0.00  0.00  0.00
  WS02003069WS02003072    1.00   0.00  0.00  0.00  0.99  0.01  0.00  0.00  0.60  0.00
  WS02003072WS02003073    1.00   0.00  0.00  0.00  0.00  0.00  0.00  1.00  0.00  0.00
  WS02004401WS02004402    1.00   0.02  0.00  0.00  0.98  0.00  0.00  0.00  0.00  0.00
  WS02004402WS02004403    1.00   0.02  0.00  0.00  0.97  0.00  0.00  0.00  0.00  0.00
  WS02004403WS02004404    1.00   0.00  0.03  0.00  0.97  0.00  0.00  0.00  0.00  0.00
  WS02004404WS02004405    1.00   0.00  0.00  0.00  1.00  0.00  0.00  0.00  0.02  0.00
  WS02004405WS02004406    1.00   0.00  0.00  0.00  1.00  0.00  0.00  0.00  0.00  0.00
  WS02004406WS02004407    1.00   0.00  0.05  0.00  0.95  0.00  0.00  0.00  0.00  0.00
  WS02004407WS02004409    1.00   0.05  0.00  0.00  0.94  0.01  0.00  0.00  0.94  0.00
  WS02004409WS02004410    1.00   0.05  0.00  0.00  0.95  0.00  0.00  0.00  0.03  0.00
  WS02004410WS02004411    1.00   0.05  0.00  0.00  0.95  0.00  0.00  0.00  0.01  0.00
  WS02004411WS02004412    1.00   0.05  0.00  0.00  0.95  0.00  0.00  0.00  0.00  0.00
  WS02004412WS02004413    1.00   0.05  0.00  0.00  0.94  0.00  0.00  0.00  0.01  0.00
  WS02004413WS02003067    1.00   0.06  0.04  0.00  0.00  0.00  0.90  0.00  0.00  0.00
  WS02006109WS02006110    1.00   0.00  0.01  0.00  0.98  0.00  0.01  0.00  0.00  0.00
  WS02006110WS02006113    1.00   0.01  0.01  0.00  0.98  0.00  0.00  0.00  0.00  0.00
  WS02006111WS02006112    1.00   0.02  0.00  0.00  0.98  0.00  0.00  0.00  0.98  0.00
  WS02006112WS02006115    1.00   0.02  0.00  0.00  0.97  0.00  0.00  0.00  0.00  0.00
  WS02006113WS02006111    1.00   0.02  0.00  0.00  0.00  0.98  0.00  0.00  0.20  0.00
  WS02006115WS02006116    1.00   0.02  0.00  0.00  0.97  0.00  0.00  0.01  0.00  0.00
  WS02006116WS02004401    1.00   0.02  0.00  0.00  0.98  0.00  0.00  0.00  0.00  0.00
  WS02006228WS02006109    1.00   0.00  0.00  0.00  1.00  0.00  0.00  0.00  0.00  0.00
  WS02006229WS02006228    1.00   0.00  0.00  0.00  0.99  0.00  0.00  0.01  0.00  0.00
  WS02006230WS02006229    1.00   0.00  0.00  0.00  0.99  0.00  0.00  0.01  0.01  0.00
  WS02006231WS02006230    1.00   0.00  0.00  0.00  0.39  0.00  0.60  0.00  0.00  0.00
  WS02006232WS02006231    1.00   0.00  0.00  0.00  0.98  0.00  0.01  0.00  0.00  0.00
  WS02006234WS02006232    1.00   0.00  0.00  0.00  1.00  0.00  0.00  0.00  0.03  0.00
  WS02006235WS02006234    1.00   0.00  0.00  0.00  0.94  0.00  0.06  0.00  0.00  0.00
  WS02006238WS02006235    1.00   0.00  0.00  0.00  1.00  0.00  0.00  0.00  0.00  0.00
  WS02006239WS02006238    1.00   0.00  0.00  0.00  1.00  0.00  0.00  0.00  0.11  0.00
  WS02006240WS02006239    1.00   0.00  0.00  0.00  0.81  0.00  0.00  0.18  0.04  0.00
  WS02006242WS02006240    1.00   0.00  0.00  0.00  0.98  0.00  0.02  0.00  0.00  0.00
  WS02006243WS02006242    1.00   0.00  0.00  0.00  0.98  0.00  0.00  0.02  0.33  0.00
  WS02006245WS02006243    1.00   0.00  0.00  0.00  0.90  0.00  0.00  0.10  0.02  0.00
  WS02006247WS02006245    1.00   0.00  0.00  0.00  0.98  0.00  0.00  0.02  0.00  0.00
  WS02006248WS02006247    1.00   0.00  0.00  0.00  0.99  0.00  0.00  0.01  0.29  0.00
  WS02006249WS02006248    1.00   0.00  0.00  0.00  0.67  0.00  0.33  0.00  0.00  0.00
  WS02006251WS02006249    1.00   0.00  0.00  0.00  0.99  0.01  0.00  0.00  0.36  0.00
  WS02006252WS02006251    1.00   0.00  0.40  0.00  0.27  0.00  0.33  0.00  0.00  0.00
  WS02006256WS02006235    1.00   0.00  0.00  0.00  1.00  0.00  0.00  0.00  0.00  0.00
  WSF200WS02003060        1.00   0.00  0.13  0.00  0.09  0.79  0.00  0.00  0.37  0.00
  YS02001580YS02001583    1.00   0.13  0.50  0.00  0.36  0.00  0.00  0.00  0.59  0.00
  YS02001583YS02001586    1.00   0.37  0.21  0.00  0.42  0.00  0.00  0.00  0.60  0.00
  YS02001586YS02001590    1.00   0.13  0.00  0.00  0.51  0.03  0.00  0.33  0.27  0.00
  YS02001590YS02001593    1.00   0.13  0.00  0.00  0.28  0.00  0.59  0.00  0.00  0.00
  YS02001593YS02001596    1.00   0.13  0.00  0.00  0.29  0.01  0.00  0.58  0.01  0.00
  YS02001596YS02001600    1.00   0.13  0.00  0.00  0.32  0.01  0.00  0.55  0.02  0.00
  YS02001600YS02001601    1.00   0.13  0.00  0.00  0.87  0.00  0.00  0.00  0.52  0.00
  YS02001601YS02001602    1.00   0.13  0.00  0.00  0.87  0.00  0.00  0.00  0.00  0.00
  YS02001602YS02001605    1.00   0.13  0.00  0.00  0.87  0.00  0.00  0.00  0.00  0.00
  YS02001605YS02001607    1.00   0.13  0.00  0.00  0.87  0.00  0.00  0.00  0.00  0.00
  YS02001607YS02001610    1.00   0.13  0.00  0.00  0.87  0.00  0.00  0.00  0.00  0.00
  YS02001610YS02001613    1.00   0.13  0.00  0.00  0.87  0.00  0.00  0.00  0.00  0.00
  YS02001613YS02001616    1.00   0.13  0.00  0.00  0.87  0.00  0.00  0.00  0.00  0.00
  YS02001616YS02001619    1.00   0.13  0.00  0.00  0.87  0.00  0.00  0.00  0.00  0.00
  YS02001619YS02001622    1.00   0.13  0.00  0.00  0.87  0.00  0.00  0.00  0.25  0.00
  YS02001622YS02001625    1.00   0.13  0.00  0.00  0.87  0.00  0.00  0.00  0.00  0.00
  YS02001625YS02001629    1.00   0.13  0.01  0.00  0.33  0.00  0.54  0.00  0.00  0.00
  YS02001629YS02163301    1.00   0.13  0.00  0.00  0.87  0.00  0.00  0.00  0.00  0.00
  YS02001633YS02163601    1.00   0.00  0.01  0.00  0.99  0.00  0.00  0.00  0.12  0.00
  YS02001641YS02001644    1.00   0.00  0.01  0.00  0.99  0.00  0.00  0.00  0.01  0.00
  YS02001644YS02001647    1.00   0.00  0.13  0.00  0.87  0.00  0.00  0.00  0.00  0.00
  YS02001647YS02001649    1.00   0.00  0.13  0.00  0.67  0.21  0.00  0.00  0.52  0.00
  YS02001649YS02001757    1.00   0.00  0.00  0.00  0.91  0.09  0.00  0.00  0.33  0.00
  YS02001652YS02001649    1.00   0.00  0.00  0.00  1.00  0.00  0.00  0.00  0.62  0.00
  YS02001655YS02001652    1.00   0.00  0.00  0.00  0.36  0.01  0.00  0.64  0.02  0.00
  YS02001658YS02001655    1.00   0.00  0.13  0.00  0.84  0.04  0.00  0.00  0.55  0.00
  YS02001661YS02001658    1.00   0.13  0.00  0.00  0.69  0.18  0.00  0.00  0.58  0.00
  YS02001664YS02001661    1.00   0.13  0.00  0.00  0.86  0.01  0.00  0.00  0.63  0.00
  YS02001745YS02001748    1.00   0.00  0.00  0.00  0.31  0.00  0.00  0.69  0.03  0.00
  YS02001748YS02001751    1.00   0.00  0.00  0.00  0.97  0.03  0.00  0.00  0.66  0.00
  YS02001751YS02001754    1.00   0.00  0.00  0.00  0.35  0.00  0.00  0.64  0.02  0.00
  YS02001754YS02001757    1.00   0.00  0.00  0.00  1.00  0.00  0.00  0.00  0.63  0.00
  YS02001757CaochengTiaoxuchi    1.00   0.00  0.00  0.00  0.99  0.01  0.00  0.00  0.49  0.00
  YS02001759YS02001757    1.00   0.00  0.00  0.00  0.99  0.01  0.00  0.00  0.46  0.00
  YS02001762YS02001759    1.00   0.00  0.00  0.00  1.00  0.00  0.00  0.00  0.02  0.00
  YS02001765YS02001762    1.00   0.00  0.00  0.00  1.00  0.00  0.00  0.00  0.56  0.00
  YS02001767YS02001765    1.00   0.00  0.00  0.00  1.00  0.00  0.00  0.00  0.01  0.00
  YS02001770YS02001767    1.00   0.00  0.00  0.00  1.00  0.00  0.00  0.00  0.00  0.00
  YS02001774YS02001770    1.00   0.00  0.12  0.00  0.73  0.00  0.14  0.00  0.00  0.00
  YS02001779YS02001774    1.00   0.00  0.00  0.00  1.00  0.00  0.00  0.00  0.64  0.00
  YS02001783YS02001784    1.00   0.00  0.13  0.00  0.87  0.00  0.00  0.00  0.52  0.00
  YS02001784YS02001785    1.00   0.00  0.00  0.00  1.00  0.00  0.00  0.00  0.12  0.00
  YS02001786YS02001788    1.00   0.00  0.00  0.00  0.89  0.11  0.00  0.00  0.00  0.00
  YS02001788YS02001790    1.00   0.00  0.00  0.00  0.26  0.74  0.00  0.00  0.72  0.00
  YS02001790YS02001791    1.00   0.00  0.00  0.00  0.01  0.99  0.00  0.00  0.10  0.00
  YS02001791YS02001793    1.00   0.00  0.00  0.00  0.00  1.00  0.00  0.00  0.05  0.00
  YS02001793JiankangQianchi    1.00   0.00  0.00  0.00  0.91  0.09  0.00  0.00  0.81  0.00
  YS02001882YS02001884    1.00   0.13  0.00  0.00  0.87  0.00  0.00  0.00  0.00  0.00
  YS02001884YS02001887    1.00   0.06  0.05  0.00  0.89  0.00  0.00  0.00  0.00  0.00
  YS02001887YS02001890    1.00   0.00  0.00  0.00  0.97  0.00  0.03  0.00  0.00  0.00
  YS02001890YS02001895    1.00   0.00  0.13  0.00  0.87  0.00  0.00  0.00  0.00  0.00
  YS02001895YS02001898    1.00   0.13  0.00  0.00  0.87  0.00  0.00  0.00  0.00  0.00
  YS02001898YS02001901    1.00   0.13  0.00  0.00  0.87  0.00  0.00  0.00  0.00  0.00
  YS02001901YS02001904    1.00   0.13  0.00  0.00  0.87  0.00  0.00  0.00  0.00  0.00
  YS02001904YS02001907    1.00   0.00  0.13  0.00  0.87  0.00  0.00  0.00  0.00  0.00
  YS02001907YS02006553    1.00   0.00  0.02  0.00  0.98  0.00  0.00  0.00  0.00  0.00
  YS02001910YS02001907    1.00   0.00  0.00  0.00  0.97  0.00  0.00  0.03  0.10  0.00
  YS02001915YS02001910    1.00   0.00  0.00  0.00  0.98  0.02  0.00  0.00  0.10  0.00
  YS02001918YS02001915    1.00   0.00  0.01  0.00  0.98  0.02  0.00  0.00  0.61  0.00
  YS02001920YS02001918    1.00   0.00  0.01  0.00  0.99  0.00  0.00  0.00  0.00  0.00
  YS02001923YS02001920    1.00   0.00  0.00  0.00  1.00  0.00  0.00  0.00  0.75  0.00
  YS02001926YS02001923    1.00   0.00  0.07  0.00  0.24  0.00  0.68  0.00  0.00  0.00
  YS02001929YS02001926    1.00   0.00  0.13  0.00  0.87  0.00  0.00  0.00  0.62  0.00
  YS02006553YS02006556    1.00   0.01  0.00  0.00  0.99  0.00  0.00  0.00  0.03  0.00
  YS02006556YS02006558    1.00   0.00  0.00  0.00  1.00  0.00  0.00  0.00  0.00  0.00
  YS02006558YS02006561    1.00   0.13  0.00  0.00  0.24  0.63  0.00  0.00  0.12  0.00
  YS02006561YS02001783    1.00   0.13  0.00  0.00  0.26  0.61  0.00  0.00  0.60  0.00
  YS02163301YS02001633    1.00   0.00  0.13  0.00  0.87  0.00  0.00  0.00  0.00  0.00
  YS02163601YS02164001    1.00   0.00  0.08  0.00  0.92  0.00  0.00  0.00  0.00  0.00
  YS02164001YS02001641    1.00   0.01  0.07  0.00  0.92  0.00  0.00  0.00  0.05  0.00
  
  
  *************************
  Conduit Surcharge Summary
  *************************
  
  ----------------------------------------------------------------------------
                                                           Hours        Hours 
                         --------- Hours Full --------   Above Full   Capacity
  Conduit                Both Ends  Upstream  Dnstream   Normal Flow   Limited
  ----------------------------------------------------------------------------
  WS02003072WS02003073        0.01      0.01      0.01      2.56         0.01
  WS02004403WS02004404        0.01      0.01      0.08      0.01         0.01
  WS02004404WS02004405        0.01      0.08      0.01      4.94         0.01
  WS02004405WS02004406        0.01      0.01      0.01      1.85         0.01
  WS02006109WS02006110        1.78      1.78      3.11      2.00         0.01
  WS02006110WS02006113        0.01      0.01      3.10      0.01         0.01
  WS02006111WS02006112        0.01      0.01      3.25      0.01         0.01
  WS02006112WS02006115        0.01      0.01      2.15      0.01         0.01
  WS02006228WS02006109        3.09      3.11      3.09      3.34         3.09
  WS02006229WS02006228        3.08      3.09      3.08      3.19         3.08
  WS02006230WS02006229        3.13      3.17      3.13      5.78         3.13
  WS02006231WS02006230        1.77      1.77      2.15      5.22         0.01
  WS02006232WS02006231        2.04      2.04      3.12      2.15         0.01
  WS02006234WS02006232        3.01      3.01      3.12      2.12         2.08
  WS02006235WS02006234        2.42      2.44      3.02      4.97         0.04
  WS02006238WS02006235        3.04      3.04      3.13      0.01         0.02
  WS02006239WS02006238        3.09      3.11      3.09      3.15         2.68
  WS02006240WS02006239        3.05      3.10      3.06      3.17         2.46
  WS02006242WS02006240        3.09      3.09      3.12      3.30         0.01
  WS02006243WS02006242        3.10      3.10      3.11      0.01         0.09
  WS02006245WS02006243        3.09      3.09      3.09      1.35         1.49
  WS02006247WS02006245        3.09      3.09      3.09      4.75         3.06
  WS02006248WS02006247        3.09      3.09      3.09      0.01         0.09
  WS02006249WS02006248        3.08      3.08      3.08      4.69         0.01
  WS02006251WS02006249        3.08      3.08      3.08      3.27         2.97
  WS02006252WS02006251        3.32      3.32      3.32      3.32         0.01
  WS02006256WS02006235        5.05      5.10      6.99      2.37         0.01
  YS02001580YS02001583        2.02      2.02      2.05      0.01         0.01
  YS02001583YS02001586        2.03      2.03      2.12      0.01         0.01
  YS02001586YS02001590        2.13      2.13      2.17      0.01         0.01
  YS02001590YS02001593        2.17      2.17      2.18      2.20         0.01
  YS02001593YS02001596        2.18      2.18      2.23      0.01         0.01
  YS02001596YS02001600        2.25      2.25      2.32      0.01         0.01
  YS02001600YS02001601        2.35      2.35      2.50      0.01         0.01
  YS02001601YS02001602        2.46      2.46      2.52      2.24         0.01
  YS02001602YS02001605        2.44      2.44      2.46      2.92         0.01
  YS02001605YS02001607        2.43      2.44      2.45      2.33         2.30
  YS02001607YS02001610        2.20      2.20      2.22      0.01         0.01
  YS02001610YS02001613        2.20      2.20      2.22      0.01         0.01
  YS02001613YS02001616        2.17      2.17      2.20      0.01         0.01
  YS02001616YS02001619        2.16      2.16      2.17      0.81         0.71
  YS02001619YS02001622        2.16      2.16      2.17      2.04         1.96
  YS02001622YS02001625        2.17      2.17      2.31      0.01         0.01
  YS02001625YS02001629        2.15      2.15      2.31      0.01         0.01
  YS02001629YS02163301        2.33      2.33      2.34      0.01         0.01
  YS02001633YS02163601        2.36      2.36      2.40      0.02         0.02
  YS02001641YS02001644        2.36      2.37      2.36      2.57         2.10
  YS02001644YS02001647        2.25      2.25      2.36      0.02         0.01
  YS02001647YS02001649        2.25      2.25      2.38      0.01         0.01
  YS02001649YS02001757        2.37      2.38      2.45      0.02         0.02
  YS02001652YS02001649        2.24      2.24      2.38      0.01         0.01
  YS02001655YS02001652        2.09      2.09      2.22      0.01         0.01
  YS02001658YS02001655        1.91      1.91      2.09      0.01         0.01
  YS02001661YS02001658        0.84      0.84      1.91      0.01         0.01
  YS02001664YS02001661        0.01      0.01      1.28      0.01         0.01
  YS02001745YS02001748        0.01      0.01      1.89      0.01         0.01
  YS02001748YS02001751        1.92      1.92      2.05      0.01         0.01
  YS02001751YS02001754        2.05      2.05      2.19      0.01         0.01
  YS02001754YS02001757        2.21      2.21      2.45      0.01         0.01
  YS02001757CaochengTiaoxuchi        2.38      2.45      3.13      0.77         0.68
  YS02001759YS02001757        2.38      2.38      2.45      0.13         0.15
  YS02001762YS02001759        2.36      2.36      2.38      0.01         0.01
  YS02001765YS02001762        2.32      2.32      2.36      0.01         0.01
  YS02001767YS02001765        2.29      2.29      2.32      0.01         0.01
  YS02001770YS02001767        2.29      2.29      2.29      1.88         1.67
  YS02001774YS02001770        2.27      2.27      2.34      0.01         0.01
  YS02001779YS02001774        2.17      2.17      2.34      0.01         0.01
  YS02001783YS02001784        1.98      1.99      1.98      2.05         1.98
  YS02001784YS02001785        1.93      1.98      1.93      2.11         1.93
  YS02001786YS02001788        0.01      1.93      0.01      2.08         0.01
  YS02001790YS02001791        0.01      0.01      0.01      1.97         0.01
  YS02001793JiankangQianchi        0.01      0.01      7.70      0.01         0.01
  YS02001882YS02001884        1.97      1.97      1.97      0.01         0.01
  YS02001884YS02001887        1.98      1.98      1.99      0.01         0.01
  YS02001887YS02001890        2.00      2.00      2.00      0.91         0.01
  YS02001890YS02001895        1.96      1.96      2.01      0.01         0.01
  YS02001895YS02001898        1.95      1.95      1.96      0.01         0.01
  YS02001898YS02001901        1.96      1.96      1.98      0.01         0.01
  YS02001901YS02001904        1.98      1.98      1.98      0.01         0.01
  YS02001904YS02001907        1.98      1.98      2.08      0.01         0.01
  YS02001907YS02006553        2.11      2.11      2.14      0.01         0.01
  YS02001910YS02001907        2.01      2.01      2.07      0.54         0.55
  YS02001915YS02001910        1.96      1.96      2.01      0.01         0.03
  YS02001918YS02001915        1.92      1.92      1.96      0.01         0.01
  YS02001920YS02001918        1.92      1.92      1.92      0.01         0.01
  YS02001923YS02001920        1.89      1.89      1.92      0.01         0.01
  YS02001926YS02001923        0.92      0.93      1.03      0.36         0.01
  YS02001929YS02001926        0.66      0.66      1.03      0.01         0.01
  YS02006553YS02006556        2.04      2.04      2.08      0.01         0.01
  YS02006556YS02006558        2.06      2.06      2.08      0.01         0.01
  YS02006558YS02006561        1.94      2.03      1.94      2.10         1.94
  YS02006561YS02001783        1.90      1.90      1.99      0.01         0.01
  YS02163301YS02001633        2.34      2.34      2.37      0.01         0.01
  YS02163601YS02164001        2.36      2.36      2.40      0.01         0.01
  YS02164001YS02001641        2.36      2.36      2.37      0.15         0.28
  
  
  ***************
  Pumping Summary
  ***************
  
  ---------------------------------------------------------------------------------------------------------
                                                  Min       Avg       Max     Total     Power    % Time Off
                        Percent   Number of      Flow      Flow      Flow    Volume     Usage    Pump Curve
  Pump                 Utilized   Start-Ups       LPS       LPS       LPS  10^6 ltr     Kw-hr    Low   High
  ---------------------------------------------------------------------------------------------------------
  CC-R1                   35.65           2      0.00    683.00    683.00     7.012    141.75    0.0   58.9
  CC-R2                   32.67           2      0.00    683.00    683.00     6.425    130.99    0.0   64.3
  CC-S1                   55.20           4      0.00    200.00    200.00     3.179     15.04    0.0   36.2
  CC-S2                   46.71           5      0.00    200.00    200.00     2.690     12.26    0.0   42.7
  JK-R1                   19.53          23      0.00   1000.00   1000.00     5.624     67.71    0.0    0.0
  JK-R2                    2.88           7      0.00   1000.00   1000.00     0.830      7.19    0.0    0.0
  JK-S                    29.66          24      0.00    300.00    300.00     2.563     34.37    0.0    0.0
  

  Analysis begun on:  Thu Feb 27 17:17:55 2025
  Analysis ended on:  Thu Feb 27 17:17:57 2025
  Total elapsed time: 00:00:02