
  EPA STORM WATER MANAGEMENT MODEL - VERSION 5.2 (Build 5.2.4)
  PYSWMM TOOLKIT API - VERSION v1.0 (2023-11-27)
  ------------------------------------------------------------

  WARNING 04: minimum elevation drop used for Conduit WS02004404WS02004405
  WARNING 03: negative offset ignored for Link YS02001904YS02001907
  
  ****************
  Analysis Options
  ****************
  Flow Units ............... LPS
  Process Models:
    Rainfall/Runoff ........ YES
    RDII ................... NO
    Snowmelt ............... NO
    Groundwater ............ NO
    Flow Routing ........... YES
    Ponding Allowed ........ NO
    Water Quality .......... NO
  Infiltration Method ...... HORTON
  Flow Routing Method ...... DYNWAVE
  Surcharge Method ......... EXTRAN
  Starting Date ............ 08/28/2015 08:00:00
  Ending Date .............. 08/28/2015 16:00:00
  Antecedent Dry Days ...... 8.0
  Report Time Step ......... 00:01:00
  Wet Time Step ............ 00:01:00
  Dry Time Step ............ 00:01:00
  Routing Time Step ........ 30.00 sec
  Variable Time Step ....... YES
  Maximum Trials ........... 8
  Number of Threads ........ 4
  Head Tolerance ........... 0.001500 m
  
  
  **************************        Volume         Depth
  Runoff Quantity Continuity     hectare-m            mm
  **************************     ---------       -------
  Total Precipitation ......         2.234        67.346
  Evaporation Loss .........         0.000         0.000
  Infiltration Loss ........         0.100         3.002
  Surface Runoff ...........         2.102        63.364
  Final Storage ............         0.033         0.994
  Continuity Error (%) .....        -0.021
  
  
  **************************        Volume        Volume
  Flow Routing Continuity        hectare-m      10^6 ltr
  **************************     ---------     ---------
  Dry Weather Inflow .......         0.025         0.251
  Wet Weather Inflow .......         2.102        21.023
  Groundwater Inflow .......         0.000         0.000
  RDII Inflow ..............         0.000         0.000
  External Inflow ..........         0.083         0.834
  External Outflow .........         1.567        15.668
  Flooding Loss ............         0.697         6.970
  Evaporation Loss .........         0.000         0.000
  Exfiltration Loss ........         0.000         0.000
  Initial Stored Volume ....         0.243         2.431
  Final Stored Volume ......         0.197         1.968
  Continuity Error (%) .....        -0.277
  
  
  *************************
  Highest Continuity Errors
  *************************
  Node YS02001583 (-5.46%)
  Node YS02001884 (5.20%)
  
  
  ***************************
  Time-Step Critical Elements
  ***************************
  Link WS02006252WS02006251 (46.28%)
  Link WS02006238WS02006235 (17.22%)
  Link WS02004404WS02004405 (13.86%)
  Link WS02006235WS02006234 (5.65%)
  Link YS02001791YS02001793 (4.85%)
  
  
  ********************************
  Highest Flow Instability Indexes
  ********************************
  Link WS02006113WS02006111 (49)
  Link WS02006111WS02006112 (23)
  Link WS02004404WS02004405 (21)
  Link WS02004403WS02004404 (19)
  Link WS02004405WS02004406 (17)
  
  
  *********************************
  Most Frequent Nonconverging Nodes
  *********************************
  Node CC-1 (12.35%)
  Node CC-2 (12.35%)
  Node JK-1 (12.35%)
  Node JK-2 (12.35%)
  Node WSC (12.35%)
  
  
  *************************
  Routing Time Step Summary
  *************************
  Minimum Time Step           :     0.00 sec
  Average Time Step           :     1.86 sec
  Maximum Time Step           :     7.04 sec
  % of Time in Steady State   :     0.00
  Average Iterations per Step :     3.11
  % of Steps Not Converging   :    12.35
  Time Step Frequencies       :
     30.000 - 13.228 sec      :     0.00 %
     13.228 -  5.833 sec      :     8.38 %
      5.833 -  2.572 sec      :    14.69 %
      2.572 -  1.134 sec      :    23.47 %
      1.134 -  0.500 sec      :    53.45 %
  
  
  ***************************
  Subcatchment Runoff Summary
  ***************************
  
  ------------------------------------------------------------------------------------------------------------------------------
                            Total      Total      Total      Total     Imperv       Perv      Total       Total     Peak  Runoff
                           Precip      Runon       Evap      Infil     Runoff     Runoff     Runoff      Runoff   Runoff   Coeff
  Subcatchment                 mm         mm         mm         mm         mm         mm         mm    10^6 ltr      LPS
  ------------------------------------------------------------------------------------------------------------------------------
  sub60                     67.35       0.00       0.00       1.81      58.06       6.28      64.34        0.85   571.03   0.955
  sub61                     67.35       0.00       0.00       2.61      54.77       8.84      63.60        1.17   792.22   0.944
  sub62                     67.35       0.00       0.00       1.20      60.67       4.19      64.86        1.78  1118.48   0.963
  sub63                     67.35       0.00       0.00       4.82      46.85      14.71      61.56        1.40   892.50   0.914
  sub64                     67.35       0.00       0.00       2.44      56.04       7.67      63.71        1.53   909.62   0.946
  sub65                     67.35       0.00       0.00       2.11      57.34       6.65      63.99        1.76  1019.96   0.950
  sub66                     67.35       0.00       0.00       5.98      46.74      13.55      60.29        2.81  1339.32   0.895
  sub67                     67.35       0.00       0.00       1.16      60.72       4.23      64.95        1.21   855.41   0.964
  sub68                     67.35       0.00       0.00       2.17      56.73       7.27      64.00        1.76  1147.02   0.950
  sub69                     67.35       0.00       0.00       1.93      57.13       8.18      65.31        2.42  1357.84   0.970
  sub70                     67.35       0.00       0.00       6.45      44.29      16.45      60.73        1.75   753.10   0.902
  sub71                     67.35       0.00       0.00       1.23      60.63       4.16      64.79        1.69   986.01   0.962
  sub72                     67.35       0.00       0.00       1.10      61.23       3.62      64.85        0.89   478.94   0.963
  
  
  ******************
  Node Depth Summary
  ******************
  
  ---------------------------------------------------------------------------------
                                 Average  Maximum  Maximum  Time of Max    Reported
                                   Depth    Depth      HGL   Occurrence   Max Depth
  Node                 Type       Meters   Meters   Meters  days hr:min      Meters
  ---------------------------------------------------------------------------------
  WS02003060           JUNCTION     0.24     0.38     5.32     0  02:58        0.38
  WS02003066           JUNCTION     0.20     0.30     5.85     0  02:57        0.30
  WS02003067           JUNCTION     0.52     0.70     6.02     0  02:57        0.70
  WS02003069           JUNCTION     0.27     0.43     5.02     0  02:58        0.43
  WS02003072           JUNCTION     0.34     0.50     4.87     0  02:59        0.50
  WS02003073           JUNCTION     0.19     0.30     4.36     0  02:54        0.30
  WS02004401           JUNCTION     0.62     0.88     6.88     0  02:53        0.88
  WS02004402           JUNCTION     0.65     0.90     6.86     0  02:53        0.90
  WS02004403           JUNCTION     0.67     0.92     6.85     0  02:50        0.92
  WS02004404           JUNCTION     0.75     1.04     6.89     0  02:38        1.01
  WS02004405           JUNCTION     0.73     0.97     6.82     0  02:51        0.97
  WS02004406           JUNCTION     0.74     0.96     6.79     0  02:55        0.96
  WS02004407           JUNCTION     0.19     0.30     6.61     0  02:56        0.30
  WS02004409           JUNCTION     0.41     0.67     6.44     0  02:56        0.67
  WS02004410           JUNCTION     0.43     0.68     6.40     0  02:56        0.68
  WS02004411           JUNCTION     0.45     0.69     6.37     0  02:56        0.69
  WS02004412           JUNCTION     0.47     0.70     6.34     0  02:57        0.70
  WS02004413           JUNCTION     0.63     0.86     6.33     0  02:57        0.86
  WS02006109           JUNCTION     0.68     1.21     7.82     0  02:06        1.18
  WS02006110           JUNCTION     0.68     1.18     7.77     0  02:06        1.05
  WS02006111           JUNCTION     0.19     0.29     7.00     0  02:06        0.29
  WS02006112           JUNCTION     0.78     1.09     6.97     0  02:41        1.08
  WS02006113           JUNCTION     0.29     0.46     7.35     0  02:06        0.45
  WS02006115           JUNCTION     0.50     0.78     6.92     0  02:48        0.77
  WS02006116           JUNCTION     0.59     0.86     6.90     0  02:48        0.86
  WS02006228           JUNCTION     0.67     1.28     7.93     0  02:06        1.22
  WS02006229           JUNCTION     0.64     1.52     8.21     0  02:34        1.52
  WS02006230           JUNCTION     0.65     1.52     8.26     0  02:06        1.17
  WS02006231           JUNCTION     0.45     1.87     9.00     0  02:06        1.87
  WS02006232           JUNCTION     0.59     2.18     9.22     0  02:06        2.18
  WS02006234           JUNCTION     0.52     1.96     9.12     0  02:06        1.96
  WS02006235           JUNCTION     0.56     2.00     9.16     0  02:06        2.00
  WS02006238           JUNCTION     0.59     2.15     9.29     0  02:06        2.15
  WS02006239           JUNCTION     0.56     2.03     9.24     0  02:06        2.03
  WS02006240           JUNCTION     0.52     2.10     9.39     0  02:06        2.10
  WS02006242           JUNCTION     0.60     1.55     8.82     0  02:01        1.55
  WS02006243           JUNCTION     0.50     1.48     8.90     0  01:58        1.48
  WS02006245           JUNCTION     0.50     1.56     9.04     0  02:06        1.56
  WS02006247           JUNCTION     0.53     1.47     8.97     0  02:06        1.47
  WS02006248           JUNCTION     0.48     1.10     8.69     0  02:01        1.10
  WS02006249           JUNCTION     0.51     1.09     8.69     0  01:59        1.09
  WS02006251           JUNCTION     0.51     1.42     9.09     0  01:59        1.13
  WS02006252           JUNCTION     0.38     1.50     9.74     0  00:00        1.50
  WS02006256           JUNCTION     0.98     2.35     9.28     0  00:00        2.35
  WSF200               JUNCTION     0.18     0.29     5.52     0  02:51        0.29
  YS02001580           JUNCTION     0.09     1.05     9.59     0  01:53        0.77
  YS02001583           JUNCTION     0.12     1.01     9.51     0  01:53        0.82
  YS02001586           JUNCTION     0.19     1.13     9.30     0  01:53        1.13
  YS02001590           JUNCTION     0.29     1.40     9.26     0  01:53        1.40
  YS02001593           JUNCTION     0.22     1.33     9.19     0  02:34        1.30
  YS02001596           JUNCTION     0.30     1.80     9.22     0  02:34        1.80
  YS02001600           JUNCTION     0.37     1.87     9.00     0  01:53        1.87
  YS02001601           JUNCTION     0.57     2.06     8.90     0  01:52        2.06
  YS02001602           JUNCTION     0.48     1.87     8.77     0  01:53        1.87
  YS02001605           JUNCTION     0.44     1.78     8.68     0  01:53        1.78
  YS02001607           JUNCTION     0.44     1.68     8.53     0  01:53        1.68
  YS02001610           JUNCTION     0.48     1.68     8.48     0  01:53        1.68
  YS02001613           JUNCTION     0.44     1.70     8.54     0  01:53        1.70
  YS02001616           JUNCTION     0.37     1.61     8.52     0  01:53        1.61
  YS02001619           JUNCTION     0.35     1.61     8.54     0  01:59        1.61
  YS02001622           JUNCTION     0.33     1.61     8.51     0  02:00        1.61
  YS02001625           JUNCTION     0.61     1.78     8.38     0  01:55        1.78
  YS02001629           JUNCTION     0.46     1.85     8.40     0  01:53        1.85
  YS02001633           JUNCTION     0.54     2.08     8.53     0  02:00        2.08
  YS02001641           JUNCTION     0.52     1.96     8.39     0  02:06        1.94
  YS02001644           JUNCTION     0.52     1.92     8.35     0  01:57        1.92
  YS02001647           JUNCTION     0.30     1.80     8.41     0  01:58        1.79
  YS02001649           JUNCTION     0.34     2.05     8.44     0  01:58        1.96
  YS02001652           JUNCTION     0.24     2.16     8.76     0  01:58        1.80
  YS02001655           JUNCTION     0.18     2.20     9.05     0  01:58        1.59
  YS02001658           JUNCTION     0.13     2.30     9.44     0  01:58        1.35
  YS02001661           JUNCTION     0.16     1.44     8.85     0  01:59        1.12
  YS02001664           JUNCTION     0.06     0.62     8.55     0  01:59        0.62
  YS02001745           JUNCTION     0.07     0.82     8.33     0  02:00        0.80
  YS02001748           JUNCTION     0.13     1.80     8.88     0  01:58        1.24
  YS02001751           JUNCTION     0.16     1.76     8.63     0  01:58        1.42
  YS02001754           JUNCTION     0.21     1.78     8.38     0  01:58        1.67
  YS02001757           JUNCTION     0.36     2.02     8.28     0  02:01        2.01
  YS02001759           JUNCTION     0.30     2.02     8.39     0  02:01        2.01
  YS02001762           JUNCTION     0.30     2.01     8.41     0  02:01        1.99
  YS02001765           JUNCTION     0.28     1.97     8.42     0  02:01        1.95
  YS02001767           JUNCTION     0.28     1.94     8.43     0  02:01        1.93
  YS02001770           JUNCTION     0.29     1.95     8.44     0  01:56        1.95
  YS02001774           JUNCTION     0.36     2.01     8.43     0  01:58        1.99
  YS02001779           JUNCTION     0.19     1.68     8.37     0  01:56        1.68
  YS02001783           JUNCTION     0.24     1.50     7.64     0  01:56        1.26
  YS02001784           JUNCTION     0.25     1.24     7.31     0  01:56        1.12
  YS02001786           JUNCTION     0.22     1.02     7.05     0  01:56        0.87
  YS02001788           JUNCTION     0.15     0.62     6.60     0  02:00        0.62
  YS02001790           JUNCTION     0.18     0.73     6.37     0  02:01        0.72
  YS02001791           JUNCTION     0.12     0.44     5.91     0  02:01        0.43
  YS02001793           JUNCTION     0.06     0.30     5.13     0  02:01        0.29
  YS02001882           JUNCTION     0.31     1.83     8.55     0  01:55        1.72
  YS02001884           JUNCTION     0.40     1.93     8.55     0  01:55        1.82
  YS02001887           JUNCTION     0.48     1.95     8.49     0  01:55        1.94
  YS02001890           JUNCTION     0.51     1.81     8.32     0  01:55        1.81
  YS02001895           JUNCTION     0.28     1.59     8.33     0  01:56        1.59
  YS02001898           JUNCTION     0.28     1.60     8.33     0  01:56        1.57
  YS02001901           JUNCTION     0.40     1.70     8.31     0  01:56        1.68
  YS02001904           JUNCTION     0.38     1.65     8.28     0  01:56        1.64
  YS02001907           JUNCTION     0.71     1.96     8.25     0  01:56        1.96
  YS02001910           JUNCTION     0.50     2.01     8.52     0  01:57        1.99
  YS02001915           JUNCTION     0.31     2.00     8.72     0  01:55        2.00
  YS02001918           JUNCTION     0.16     1.81     8.88     0  01:56        1.76
  YS02001920           JUNCTION     0.24     2.12     9.13     0  01:57        1.78
  YS02001923           JUNCTION     0.13     2.03     9.29     0  01:57        1.35
  YS02001926           JUNCTION     0.16     1.90     9.35     0  01:56        1.15
  YS02001929           JUNCTION     0.09     1.78     9.47     0  01:57        0.89
  YS02006553           JUNCTION     0.71     2.05     8.33     0  02:00        2.05
  YS02006556           JUNCTION     0.68     2.11     8.42     0  01:56        2.10
  YS02006558           JUNCTION     0.72     2.22     8.49     0  02:00        2.22
  YS02006561           JUNCTION     0.15     1.33     7.99     0  01:56        0.90
  YS02163301           JUNCTION     0.48     1.95     8.47     0  02:00        1.95
  YS02163601           JUNCTION     0.58     2.05     8.44     0  02:00        2.05
  YS02164001           JUNCTION     0.51     1.96     8.42     0  02:06        1.96
  CC-1                 OUTFALL      0.00     0.00     0.00     0  00:00        0.00
  CC-2                 OUTFALL      0.00     0.00     0.00     0  00:00        0.00
  JK-1                 OUTFALL      0.00     0.00     0.00     0  00:00        0.00
  JK-2                 OUTFALL      0.00     0.00     0.00     0  00:00        0.00
  WSC                  OUTFALL      0.19     0.30     0.97     0  02:54        0.30
  CC-storage           STORAGE      0.85     1.72     7.22     0  02:30        1.72
  JK-storage           STORAGE      2.99     4.23     5.03     0  02:05        4.19
  
  
  *******************
  Node Inflow Summary
  *******************
  
  -------------------------------------------------------------------------------------------------
                                  Maximum  Maximum                  Lateral       Total        Flow
                                  Lateral    Total  Time of Max      Inflow      Inflow     Balance
                                   Inflow   Inflow   Occurrence      Volume      Volume       Error
  Node                 Type           LPS      LPS  days hr:min    10^6 ltr    10^6 ltr     Percent
  -------------------------------------------------------------------------------------------------
  WS02003060           JUNCTION     16.53   555.68     0  02:58       0.476        6.16       0.038
  WS02003066           JUNCTION      0.00   539.14     0  02:57           0        5.69       0.024
  WS02003067           JUNCTION      0.00   539.08     0  02:57           0        5.69       0.074
  WS02003069           JUNCTION      0.32   556.08     0  02:58     0.00922        6.17       0.063
  WS02003072           JUNCTION      0.00   555.66     0  02:59           0        6.16       0.111
  WS02003073           JUNCTION      1.82   557.15     0  02:59      0.0524        6.21       0.091
  WS02004401           JUNCTION      0.00   540.89     0  02:41           0        5.79       0.177
  WS02004402           JUNCTION      0.00   541.56     0  02:55           0        5.78       0.180
  WS02004403           JUNCTION      0.00   543.18     0  02:49           0        5.77       0.174
  WS02004404           JUNCTION      0.16   559.84     0  02:42     0.00467        5.76       0.133
  WS02004405           JUNCTION      0.04   603.40     0  02:11      0.0011        5.75       0.151
  WS02004406           JUNCTION      0.00   546.38     0  02:55           0        5.75       0.361
  WS02004407           JUNCTION      0.00   541.27     0  02:56           0        5.73       0.021
  WS02004409           JUNCTION      0.00   540.63     0  02:56           0        5.72       0.047
  WS02004410           JUNCTION      0.00   539.89     0  02:56           0        5.72       0.075
  WS02004411           JUNCTION      0.00   539.65     0  02:56           0        5.72       0.097
  WS02004412           JUNCTION      0.00   539.58     0  02:56           0        5.71       0.130
  WS02004413           JUNCTION      0.00   539.34     0  02:57           0         5.7       0.231
  WS02006109           JUNCTION      1.23   589.96     0  02:06      0.0354        5.84       0.164
  WS02006110           JUNCTION      0.00   587.00     0  02:06           0        5.83       0.118
  WS02006111           JUNCTION      0.00   572.41     0  02:06           0        5.82       0.013
  WS02006112           JUNCTION      0.00   550.65     0  02:06           0        5.82       0.299
  WS02006113           JUNCTION      0.00   592.42     0  02:06           0        5.82       0.033
  WS02006115           JUNCTION      0.00   551.94     0  02:06           0         5.8       0.114
  WS02006116           JUNCTION      0.00   542.06     0  02:23           0        5.79       0.101
  WS02006228           JUNCTION      0.00   586.10     0  02:06           0        5.81       0.075
  WS02006229           JUNCTION      0.00   580.29     0  02:06           0        5.81       0.064
  WS02006230           JUNCTION     10.28   596.00     0  02:20       0.296        5.81       0.049
  WS02006231           JUNCTION      0.00   593.36     0  02:01           0        5.52       0.097
  WS02006232           JUNCTION      0.00   591.18     0  02:01           0        5.53       0.217
  WS02006234           JUNCTION      0.00   581.39     0  02:01           0        5.53      -0.053
  WS02006235           JUNCTION      0.00   566.04     0  03:05           0        5.57       0.209
  WS02006238           JUNCTION      0.00   422.35     0  02:25           0        4.69      -0.142
  WS02006239           JUNCTION      0.00   421.77     0  02:25           0        4.66      -0.109
  WS02006240           JUNCTION      0.00   419.41     0  02:30           0        4.65      -0.007
  WS02006242           JUNCTION      0.00   419.62     0  03:04           0        4.64      -0.047
  WS02006243           JUNCTION      0.00   418.83     0  03:04           0        4.63      -0.203
  WS02006245           JUNCTION      0.00   418.32     0  02:10           0        4.65       0.307
  WS02006247           JUNCTION      0.00   418.36     0  03:07           0        4.65      -0.000
  WS02006248           JUNCTION      0.00   418.34     0  02:55           0        4.65      -0.015
  WS02006249           JUNCTION      0.00   465.07     0  05:00           0         4.9       0.347
  WS02006251           JUNCTION      0.08   409.21     0  02:34     0.00222         4.9       0.025
  WS02006252           JUNCTION      0.00   400.00     0  00:00           0        4.89      -0.273
  WS02006256           JUNCTION      0.00   300.00     0  00:00           0        1.31      -0.894
  WSF200               JUNCTION      0.00   539.18     0  02:57           0        5.69       0.008
  YS02001580           JUNCTION      0.00   138.94     0  01:53           0     0.00473       0.097
  YS02001583           JUNCTION      0.00   162.58     0  01:53           0      0.0157      -5.180
  YS02001586           JUNCTION    753.10   753.12     0  02:04        1.75        1.77       0.077
  YS02001590           JUNCTION      0.00   319.63     0  02:06           0        1.36      -0.023
  YS02001593           JUNCTION      0.00   320.02     0  02:06           0        1.36       0.003
  YS02001596           JUNCTION      0.00   317.99     0  02:06           0        1.36      -0.006
  YS02001600           JUNCTION      0.00   318.34     0  02:06           0        1.36       0.016
  YS02001601           JUNCTION   1357.84  1675.35     0  02:03        2.42        3.77       0.020
  YS02001602           JUNCTION      0.00   519.10     0  01:52           0        2.28       0.021
  YS02001605           JUNCTION      0.00   519.40     0  01:52           0        2.16       0.034
  YS02001607           JUNCTION      0.00   518.68     0  01:52           0        2.16       0.088
  YS02001610           JUNCTION      0.00   738.13     0  02:04           0         2.4       0.091
  YS02001613           JUNCTION      0.00   520.78     0  01:52           0        1.91       0.083
  YS02001616           JUNCTION      0.00   525.29     0  01:52           0        1.91       0.028
  YS02001619           JUNCTION   1339.32  1339.32     0  02:04        2.81        4.47       0.001
  YS02001622           JUNCTION      0.00   950.83     0  02:02           0        4.22      -0.001
  YS02001625           JUNCTION      0.00  1351.54     0  02:04           0        4.44       0.208
  YS02001629           JUNCTION      0.00   958.03     0  01:53           0        3.42       0.014
  YS02001633           JUNCTION   1020.16  1378.16     0  01:55        1.77        4.91       0.070
  YS02001641           JUNCTION      0.00  1377.43     0  01:55           0        4.65       0.061
  YS02001644           JUNCTION    909.66  1791.61     0  01:55        1.53        6.18       0.052
  YS02001647           JUNCTION      0.00  1791.28     0  01:55           0        5.69       0.004
  YS02001649           JUNCTION      0.00  2017.44     0  01:55           0        7.09       0.001
  YS02001652           JUNCTION      0.00   915.69     0  02:02           0         1.4      -0.056
  YS02001655           JUNCTION      0.15   915.51     0  02:02     0.00443         1.4      -0.008
  YS02001658           JUNCTION      0.00   915.43     0  02:02           0         1.4      -0.024
  YS02001661           JUNCTION      0.00   914.00     0  02:02           0         1.4       0.013
  YS02001664           JUNCTION    892.50   892.50     0  02:02         1.4         1.4      -0.010
  YS02001745           JUNCTION    571.03   571.03     0  02:02       0.846       0.846       0.188
  YS02001748           JUNCTION      0.04   604.83     0  01:58      0.0013       0.846      -0.235
  YS02001751           JUNCTION      0.01   575.22     0  02:02    0.000317       0.854       0.078
  YS02001754           JUNCTION      0.26   575.44     0  02:02     0.00749       0.867      -0.146
  YS02001757           JUNCTION      0.00  3333.81     0  01:59           0        10.7       0.030
  YS02001759           JUNCTION    792.26  1365.28     0  02:01        1.17        2.74      -0.005
  YS02001762           JUNCTION      0.00   743.55     0  01:58           0        1.57       0.009
  YS02001765           JUNCTION      0.00   743.03     0  01:58           0        1.57       0.011
  YS02001767           JUNCTION      0.54   743.97     0  01:58      0.0154        1.57       0.012
  YS02001770           JUNCTION   1118.64  1118.64     0  02:02        1.78        1.83      -0.008
  YS02001774           JUNCTION      0.00   584.01     0  02:02           0       0.292       0.412
  YS02001779           JUNCTION      0.01   584.42     0  02:02    0.000144       0.247      -0.186
  YS02001783           JUNCTION      0.00  1169.24     0  02:00           0        4.11       0.005
  YS02001784           JUNCTION      1.06  1170.99     0  02:00      0.0305        4.14       0.013
  YS02001786           JUNCTION      0.06  1171.49     0  02:00     0.00162        4.14       0.016
  YS02001788           JUNCTION      0.07  1171.93     0  02:00     0.00204        4.14       0.008
  YS02001790           JUNCTION      0.15  1178.72     0  01:59     0.00446        4.15       0.020
  YS02001791           JUNCTION      0.00  1297.65     0  02:01           0        4.14      -0.027
  YS02001793           JUNCTION      0.00  1246.76     0  02:06           0        4.15       0.005
  YS02001882           JUNCTION      0.00    50.77     0  01:54           0      0.0126       5.463
  YS02001884           JUNCTION      0.00    69.84     0  01:54           0      0.0483       5.480
  YS02001887           JUNCTION    855.86   859.69     0  02:01        1.22        1.25       0.352
  YS02001890           JUNCTION      0.00   859.77     0  02:01           0        1.21       0.420
  YS02001895           JUNCTION      0.00   518.05     0  02:05           0        1.09       0.153
  YS02001898           JUNCTION      0.00   517.93     0  02:05           0        1.09      -0.008
  YS02001901           JUNCTION      0.00   517.76     0  02:02           0         1.1       0.300
  YS02001904           JUNCTION      0.00   517.48     0  02:01           0         1.1       0.249
  YS02001907           JUNCTION      0.00  1999.54     0  02:02           0        3.76       0.470
  YS02001910           JUNCTION      0.00  1483.33     0  02:02           0        2.67       0.267
  YS02001915           JUNCTION    986.03  1482.50     0  02:02         1.7        2.71       0.056
  YS02001918           JUNCTION      0.00   497.55     0  02:02           0        1.04      -0.001
  YS02001920           JUNCTION      2.87   497.33     0  02:02      0.0827        1.03       0.079
  YS02001923           JUNCTION      0.04   493.84     0  02:02     0.00109       0.928      -0.060
  YS02001926           JUNCTION      0.05   586.36     0  01:56      0.0015       0.906      -0.051
  YS02001929           JUNCTION    478.94   478.94     0  02:03       0.892       0.894      -0.039
  YS02006553           JUNCTION      0.00   797.69     0  02:20           0        2.37       0.505
  YS02006556           JUNCTION      0.00   797.91     0  02:20           0        2.38       0.344
  YS02006558           JUNCTION   1147.90  1174.82     0  01:56        1.79        4.14       0.088
  YS02006561           JUNCTION      0.00  1175.35     0  01:56           0        4.11      -0.001
  YS02163301           JUNCTION      0.00   920.86     0  01:55           0        3.41       0.050
  YS02163601           JUNCTION      0.11  1377.96     0  01:55     0.00317        4.65       0.106
  YS02164001           JUNCTION      0.00  1377.56     0  01:55           0        4.65       0.047
  CC-1                 OUTFALL       0.00   683.00     0  00:00           0        3.42       0.000
  CC-2                 OUTFALL       0.00   683.00     0  00:00           0        3.24       0.000
  JK-1                 OUTFALL       0.00  1000.00     0  00:00           0        2.25       0.000
  JK-2                 OUTFALL       0.00  1000.00     0  00:00           0       0.552       0.000
  WSC                  OUTFALL       0.00   556.93     0  02:54           0         6.2       0.000
  CC-storage           STORAGE       0.00  3336.47     0  01:59           0        12.9      -0.232
  JK-storage           STORAGE       0.00  1220.57     0  01:59           0         4.3       0.096
  
  
  **********************
  Node Surcharge Summary
  **********************
  
  Surcharging occurs when water rises above the top of the highest conduit.
  ---------------------------------------------------------------------
                                               Max. Height   Min. Depth
                                   Hours       Above Crown    Below Rim
  Node                 Type      Surcharged         Meters       Meters
  ---------------------------------------------------------------------
  WS02004404           JUNCTION        0.04          0.036        2.744
  WS02006109           JUNCTION        2.07          0.387        1.433
  WS02006110           JUNCTION        0.78          0.272        1.578
  WS02006112           JUNCTION        1.06          0.088        1.592
  WS02006228           JUNCTION        2.05          0.453        1.747
  WS02006229           JUNCTION        2.09          0.716        1.734
  WS02006230           JUNCTION        0.78          0.440        1.130
  WS02006231           JUNCTION        0.94          1.164        0.366
  WS02006232           JUNCTION        2.24          1.480        0.000
  WS02006234           JUNCTION        1.28          1.240        0.000
  WS02006235           JUNCTION        2.06          1.290        0.000
  WS02006238           JUNCTION        2.16          1.430        0.000
  WS02006239           JUNCTION        2.05          1.290        0.000
  WS02006240           JUNCTION        2.03          1.390        0.000
  WS02006242           JUNCTION        2.24          0.820        0.000
  WS02006243           JUNCTION        2.04          0.770        0.000
  WS02006245           JUNCTION        2.04          0.850        0.000
  WS02006247           JUNCTION        2.08          0.760        0.000
  WS02006248           JUNCTION        2.01          0.380        0.000
  WS02006249           JUNCTION        2.05          0.390        0.000
  WS02006251           JUNCTION        1.01          0.386        0.794
  WS02006252           JUNCTION        2.75          1.100        0.000
  WS02006256           JUNCTION        7.34          2.050        0.000
  YS02001580           JUNCTION        0.65          0.450        0.000
  YS02001583           JUNCTION        0.66          0.375        0.125
  YS02001586           JUNCTION        0.79          0.510        0.000
  YS02001590           JUNCTION        0.87          0.750        0.000
  YS02001593           JUNCTION        0.87          0.705        0.135
  YS02001596           JUNCTION        0.98          1.070        0.000
  YS02001600           JUNCTION        1.14          1.190        0.000
  YS02001601           JUNCTION        1.46          1.440        0.000
  YS02001602           JUNCTION        1.37          1.270        0.000
  YS02001605           JUNCTION        1.33          1.180        0.000
  YS02001607           JUNCTION        0.86          0.680        0.000
  YS02001610           JUNCTION        0.89          0.680        0.000
  YS02001613           JUNCTION        0.85          0.700        0.000
  YS02001616           JUNCTION        0.81          0.610        0.000
  YS02001619           JUNCTION        0.80          0.610        0.000
  YS02001622           JUNCTION        0.80          0.608        0.012
  YS02001625           JUNCTION        0.98          0.780        0.000
  YS02001629           JUNCTION        0.75          0.470        0.000
  YS02001633           JUNCTION        1.01          1.060        0.000
  YS02001641           JUNCTION        0.96          0.956        0.144
  YS02001644           JUNCTION        0.93          0.920        0.000
  YS02001647           JUNCTION        0.72          0.802        0.098
  YS02001649           JUNCTION        0.85          1.050        0.000
  YS02001652           JUNCTION        0.64          1.130        0.000
  YS02001655           JUNCTION        0.47          1.200        0.000
  YS02001658           JUNCTION        0.25          1.300        0.000
  YS02001661           JUNCTION        0.05          0.374        1.016
  YS02001748           JUNCTION        0.20          0.719        0.471
  YS02001751           JUNCTION        0.35          0.756        0.444
  YS02001754           JUNCTION        0.55          0.725        0.425
  YS02001757           JUNCTION        0.92          1.021        0.189
  YS02001759           JUNCTION        0.82          1.025        0.185
  YS02001762           JUNCTION        0.79          1.007        0.143
  YS02001765           JUNCTION        0.74          0.970        0.130
  YS02001767           JUNCTION        0.71          0.945        0.085
  YS02001770           JUNCTION        0.68          0.920        0.000
  YS02001774           JUNCTION        0.77          1.005        0.045
  YS02001779           JUNCTION        0.55          0.680        0.000
  YS02001783           JUNCTION        0.57          0.703        0.897
  YS02001784           JUNCTION        0.54          0.444        1.046
  YS02001786           JUNCTION        0.43          0.223        1.207
  YS02001882           JUNCTION        0.52          0.830        0.000
  YS02001884           JUNCTION        0.53          0.870        0.000
  YS02001887           JUNCTION        0.56          0.903        0.047
  YS02001890           JUNCTION        0.57          0.760        0.000
  YS02001895           JUNCTION        0.50          0.586        0.164
  YS02001898           JUNCTION        0.50          0.566        0.174
  YS02001901           JUNCTION        0.55          0.702        0.168
  YS02001904           JUNCTION        0.54          0.650        0.200
  YS02001907           JUNCTION        0.78          0.950        0.000
  YS02001910           JUNCTION        0.60          1.011        0.089
  YS02001915           JUNCTION        0.51          1.000        0.000
  YS02001918           JUNCTION        0.43          0.810        0.000
  YS02001920           JUNCTION        0.44          1.123        0.017
  YS02001923           JUNCTION        0.12          0.820        0.000
  YS02001926           JUNCTION        0.15          0.900        0.000
  YS02001929           JUNCTION        0.01          0.780        0.000
  YS02006553           JUNCTION        0.80          1.049        0.141
  YS02006556           JUNCTION        0.69          1.069        0.281
  YS02006558           JUNCTION        0.68          1.119        0.281
  YS02006561           JUNCTION        0.39          0.527        0.623
  YS02163301           JUNCTION        0.99          0.950        0.080
  YS02163601           JUNCTION        1.04          1.046        0.034
  YS02164001           JUNCTION        0.96          0.959        0.141
  
  
  *********************
  Node Flooding Summary
  *********************
  
  Flooding refers to all water that overflows a node, whether it ponds or not.
  --------------------------------------------------------------------------
                                                             Total   Maximum
                                 Maximum   Time of Max       Flood    Ponded
                        Hours       Rate    Occurrence      Volume     Depth
  Node                 Flooded       LPS   days hr:min    10^6 ltr    Meters
  --------------------------------------------------------------------------
  WS02006232              0.01      1.66      0  02:06       0.000     0.000
  WS02006234              0.01      3.95      0  02:06       0.000     0.000
  WS02006235              0.01      6.02      0  02:06       0.000     0.000
  WS02006238              0.01      4.59      0  02:06       0.000     0.000
  WS02006239              0.01      1.99      0  02:06       0.000     0.000
  WS02006240              0.01      1.73      0  02:06       0.000     0.000
  WS02006242              0.01     18.41      0  02:06       0.000     0.000
  WS02006243              0.01     81.42      0  01:58       0.000     0.000
  WS02006245              0.01      0.44      0  02:06       0.000     0.000
  WS02006247              0.01      0.49      0  02:06       0.000     0.000
  WS02006248              0.02     22.46      0  02:06       0.001     0.000
  WS02006249              0.98    109.41      0  01:59       0.234     0.000
  WS02006252              0.01    245.63      0  00:00       0.000     0.000
  WS02006256              1.22    293.19      0  00:00       0.440     0.000
  YS02001580              0.01    109.16      0  01:53       0.000     0.000
  YS02001586              0.52    435.50      0  02:04       0.398     0.000
  YS02001590              0.01      6.37      0  01:53       0.000     0.000
  YS02001596              0.01      0.37      0  02:34       0.000     0.000
  YS02001600              0.01      6.81      0  02:34       0.000     0.000
  YS02001601              0.72   1277.55      0  02:03       1.490     0.000
  YS02001602              0.62     62.08      0  02:26       0.125     0.000
  YS02001605              0.01     14.63      0  02:34       0.000     0.000
  YS02001607              0.01     10.31      0  01:53       0.000     0.000
  YS02001610              0.54    737.71      0  02:04       0.745     0.000
  YS02001613              0.01     12.62      0  01:53       0.000     0.000
  YS02001616              0.01     13.21      0  01:53       0.000     0.000
  YS02001619              0.01      1.42      0  02:01       0.000     0.000
  YS02001625              0.51   1351.54      0  02:04       1.272     0.000
  YS02001629              0.13    208.20      0  02:00       0.052     0.000
  YS02001633              0.01      0.87      0  02:00       0.000     0.000
  YS02001644              0.22   1065.66      0  02:02       0.480     0.000
  YS02001649              0.01      5.95      0  01:58       0.000     0.000
  YS02001652              0.01     44.38      0  01:58       0.000     0.000
  YS02001655              0.01     72.54      0  01:58       0.000     0.000
  YS02001658              0.01    401.08      0  01:58       0.000     0.000
  YS02001770              0.01     74.21      0  01:56       0.000     0.000
  YS02001779              0.19    584.18      0  02:02       0.228     0.000
  YS02001882              0.01     11.08      0  01:55       0.000     0.000
  YS02001884              0.01     10.18      0  01:55       0.000     0.000
  YS02001890              0.19    343.95      0  02:01       0.114     0.000
  YS02001907              0.37   1971.68      0  02:02       1.383     0.000
  YS02001915              0.01     95.64      0  01:55       0.000     0.000
  YS02001918              0.01    147.44      0  01:57       0.002     0.000
  YS02001923              0.01    273.32      0  01:57       0.001     0.000
  YS02001926              0.01    487.59      0  01:56       0.001     0.000
  YS02001929              0.01    201.80      0  01:57       0.001     0.000
  
  
  **********************
  Storage Volume Summary
  **********************
  
  ------------------------------------------------------------------------------------------------
                         Average    Avg   Evap  Exfil     Maximum    Max    Time of Max    Maximum
                          Volume   Pcnt   Pcnt   Pcnt      Volume   Pcnt     Occurrence    Outflow
  Storage Unit           1000 m³   Full   Loss   Loss     1000 m³   Full    days hr:min        LPS
  ------------------------------------------------------------------------------------------------
  CC-storage               2.372   37.0    0.0    0.0       4.807   75.0       0  02:30    1783.53
  JK-storage               0.150   51.6    0.0    0.0       0.213   73.0       0  02:05    2300.00
  
  
  ***********************
  Outfall Loading Summary
  ***********************
  
  -----------------------------------------------------------
                         Flow       Avg       Max       Total
                         Freq      Flow      Flow      Volume
  Outfall Node           Pcnt       LPS       LPS    10^6 ltr
  -----------------------------------------------------------
  CC-1                  17.99    683.00    683.00       3.418
  CC-2                  17.01    683.00    683.00       3.240
  JK-1                   9.44   1000.00   1000.00       2.253
  JK-2                   3.91   1000.00   1000.00       0.552
  WSC                   99.96    270.62    556.93       6.204
  -----------------------------------------------------------
  System                29.66   3636.62   3366.23      15.668
  
  
  ********************
  Link Flow Summary
  ********************
  
  -----------------------------------------------------------------------------
                                 Maximum  Time of Max   Maximum    Max/    Max/
                                  |Flow|   Occurrence   |Veloc|    Full    Full
  Link                 Type          LPS  days hr:min     m/sec    Flow   Depth
  -----------------------------------------------------------------------------
  1                    CONDUIT    556.93     0  02:54      2.83    0.19    0.30
  WS02003060WS02003069 CONDUIT    555.76     0  02:58      1.64    0.22    0.34
  WS02003066WSF200     CONDUIT    539.18     0  02:57      2.85    0.09    0.22
  WS02003067WS02003066 CONDUIT    539.14     0  02:57      1.21    0.17    0.42
  WS02003069WS02003072 CONDUIT    555.66     0  02:59      1.37    0.27    0.39
  WS02003072WS02003073 CONDUIT    555.33     0  02:59      1.44    1.20    0.37
  WS02004401WS02004402 CONDUIT    541.56     0  02:55      0.98    0.65    0.89
  WS02004402WS02004403 CONDUIT    543.18     0  02:49      0.97    0.78    0.91
  WS02004403WS02004404 CONDUIT    559.68     0  02:42      0.92    0.40    0.96
  WS02004404WS02004405 CONDUIT    603.36     0  02:11      1.08    5.91    0.98
  WS02004405WS02004406 CONDUIT    546.38     0  02:55      0.99    1.08    0.96
  WS02004406WS02004407 CONDUIT    541.27     0  02:56      1.04    0.24    0.63
  WS02004407WS02004409 CONDUIT    540.63     0  02:56      1.50    0.19    0.48
  WS02004409WS02004410 CONDUIT    539.89     0  02:56      0.98    0.70    0.68
  WS02004410WS02004411 CONDUIT    539.65     0  02:56      0.94    0.74    0.69
  WS02004411WS02004412 CONDUIT    539.58     0  02:56      0.93    0.77    0.70
  WS02004412WS02004413 CONDUIT    539.34     0  02:57      0.82    0.36    0.78
  WS02004413WS02003067 CONDUIT    539.08     0  02:57      1.11    0.23    0.59
  WS02006109WS02006110 CONDUIT    587.00     0  02:06      1.17    1.13    1.00
  WS02006110WS02006113 CONDUIT    592.42     0  02:06      1.41    0.54    0.79
  WS02006111WS02006112 CONDUIT    550.65     0  02:06      1.81    0.26    0.67
  WS02006112WS02006115 CONDUIT    551.94     0  02:06      0.78    0.33    0.88
  WS02006113WS02006111 CONDUIT    572.41     0  02:06      2.48    0.69    0.47
  WS02006115WS02006116 CONDUIT    542.06     0  02:23      0.97    0.70    0.78
  WS02006116WS02004401 CONDUIT    540.89     0  02:41      0.98    0.75    0.87
  WS02006228WS02006109 CONDUIT    588.73     0  02:06      1.17    2.57    1.00
  WS02006229WS02006228 CONDUIT    586.10     0  02:06      1.17    1.94    1.00
  WS02006230WS02006229 CONDUIT    580.29     0  02:06      1.51   12.91    1.00
  WS02006231WS02006230 CONDUIT    585.73     0  02:20      1.59    8.88    1.00
  WS02006232WS02006231 CONDUIT    593.36     0  02:01      1.54    1.24    1.00
  WS02006234WS02006232 CONDUIT    591.18     0  02:01      1.54    1.20    1.00
  WS02006235WS02006234 CONDUIT    581.39     0  02:01      1.51    6.13    1.00
  WS02006238WS02006235 CONDUIT    423.89     0  02:25      1.45    0.95    1.00
  WS02006239WS02006238 CONDUIT    422.35     0  02:25      1.10    1.35    1.00
  WS02006240WS02006239 CONDUIT    421.77     0  02:25      1.24    1.33    1.00
  WS02006242WS02006240 CONDUIT    419.41     0  02:30      1.13    1.67    1.00
  WS02006243WS02006242 CONDUIT    419.62     0  03:04      1.40    0.90    1.00
  WS02006245WS02006243 CONDUIT    418.83     0  03:04      1.45    1.24    1.00
  WS02006247WS02006245 CONDUIT    418.32     0  02:10      1.43    3.32    1.00
  WS02006248WS02006247 CONDUIT    418.36     0  03:07      1.44    0.91    1.00
  WS02006249WS02006248 CONDUIT    418.34     0  02:55      1.39    2.29    1.00
  WS02006251WS02006249 CONDUIT    465.07     0  05:00      1.99    1.34    1.00
  WS02006252WS02006251 CONDUIT    409.13     0  02:34     24.61    1.50    1.00
  WS02006256WS02006235 CONDUIT    288.91     0  00:00      4.23    3.06    1.00
  WSF200WS02003060     CONDUIT    539.15     0  02:58      2.06    0.12    0.28
  YS02001580YS02001583 CONDUIT    138.94     0  01:53      0.67    0.54    1.00
  YS02001583YS02001586 CONDUIT    158.13     0  01:53      0.66    0.24    1.00
  YS02001586YS02001590 CONDUIT    319.63     0  02:06      1.25    0.56    1.00
  YS02001590YS02001593 CONDUIT    320.02     0  02:06      1.13    2.01    1.00
  YS02001593YS02001596 CONDUIT    317.99     0  02:06      1.74    0.50    1.00
  YS02001596YS02001600 CONDUIT    318.34     0  02:06      1.24    0.62    1.00
  YS02001600YS02001601 CONDUIT    318.68     0  02:06      1.13    0.55    1.00
  YS02001601YS02001602 CONDUIT    519.10     0  01:52      1.84    1.88    1.00
  YS02001602YS02001605 CONDUIT    519.40     0  01:52      1.84   10.99    1.00
  YS02001605YS02001607 CONDUIT    518.68     0  01:52      1.83    2.84    1.00
  YS02001607YS02001610 CONDUIT    521.10     0  01:52      0.66    0.50    1.00
  YS02001610YS02001613 CONDUIT    520.78     0  01:52      0.66    0.60    1.00
  YS02001613YS02001616 CONDUIT    525.29     0  01:52      0.68    0.45    1.00
  YS02001616YS02001619 CONDUIT    523.93     0  01:53      0.67    0.91    1.00
  YS02001619YS02001622 CONDUIT    950.83     0  02:02      1.21    1.40    1.00
  YS02001622YS02001625 CONDUIT    955.50     0  01:53      1.22    0.51    1.00
  YS02001625YS02001629 CONDUIT    958.03     0  01:53      1.22    0.46    1.00
  YS02001629YS02163301 CONDUIT    920.86     0  01:55      1.17    1.13    1.00
  YS02001633YS02163601 CONDUIT   1377.85     0  01:55      1.75    1.45    1.00
  YS02001641YS02001644 CONDUIT   1377.04     0  01:55      1.75    4.45    1.00
  YS02001644YS02001647 CONDUIT   1791.28     0  01:55      2.28    1.05    1.00
  YS02001647YS02001649 CONDUIT   1812.03     0  01:56      2.33    0.96    1.00
  YS02001649YS02001757 CONDUIT   2017.85     0  01:56      2.57    1.22    1.00
  YS02001652YS02001649 CONDUIT    915.75     0  02:02      1.17    0.45    1.00
  YS02001655YS02001652 CONDUIT    915.69     0  02:02      1.35    0.44    1.00
  YS02001658YS02001655 CONDUIT    915.35     0  02:02      1.90    0.39    1.00
  YS02001661YS02001658 CONDUIT    915.43     0  02:02      2.32    0.36    1.00
  YS02001664YS02001661 CONDUIT    914.00     0  02:02      2.32    0.29    0.81
  YS02001745YS02001748 CONDUIT    604.78     0  01:58      2.19    0.23    0.91
  YS02001748YS02001751 CONDUIT    575.21     0  02:02      1.69    0.29    1.00
  YS02001751YS02001754 CONDUIT    575.18     0  02:02      1.44    0.28    1.00
  YS02001754YS02001757 CONDUIT    575.90     0  02:02      0.73    0.23    1.00
  YS02001757CaochengTiaoxuchi CONDUIT   3336.47     0  01:59      4.25    1.44    1.00
  YS02001759YS02001757 CONDUIT   1366.61     0  02:01      1.74    0.97    1.00
  YS02001762YS02001759 CONDUIT    743.41     0  01:58      0.95    0.86    1.00
  YS02001765YS02001762 CONDUIT    743.55     0  01:58      0.95    0.70    1.00
  YS02001767YS02001765 CONDUIT    743.03     0  01:58      0.95    0.93    1.00
  YS02001770YS02001767 CONDUIT    743.44     0  01:58      0.95    2.94    1.00
  YS02001774YS02001770 CONDUIT    584.01     0  02:02      0.74    0.37    1.00
  YS02001779YS02001774 CONDUIT    584.41     0  02:02      0.74    0.29    1.00
  YS02001783YS02001784 CONDUIT   1169.93     0  02:00      2.33    1.61    1.00
  YS02001784YS02001785 CONDUIT   1171.44     0  02:00      2.33    2.73    1.00
  YS02001786YS02001788 CONDUIT   1171.86     0  02:00      2.50    2.26    0.89
  YS02001788YS02001790 CONDUIT   1178.56     0  01:59      2.73    0.87    0.84
  YS02001790YS02001791 CONDUIT   1297.65     0  02:01      3.45    1.41    0.71
  YS02001791YS02001793 CONDUIT   1246.76     0  02:06      6.71    0.54    0.45
  YS02001793JiankangQianchi CONDUIT   1220.57     0  01:59      2.45    0.10    0.65
  YS02001882YS02001884 CONDUIT     50.77     0  01:54      0.13    0.06    1.00
  YS02001884YS02001887 CONDUIT     69.84     0  01:54      0.09    0.09    1.00
  YS02001887YS02001890 CONDUIT    859.77     0  02:01      1.09    1.47    1.00
  YS02001890YS02001895 CONDUIT    518.05     0  02:05      0.66    0.24    1.00
  YS02001895YS02001898 CONDUIT    517.93     0  02:05      0.66    0.90    1.00
  YS02001898YS02001901 CONDUIT    517.76     0  02:02      0.66    0.33    1.00
  YS02001901YS02001904 CONDUIT    517.48     0  02:01      0.66    0.80    1.00
  YS02001904YS02001907 CONDUIT    519.13     0  02:05      0.66    0.18    1.00
  YS02001907YS02006553 CONDUIT    797.69     0  02:20      0.89    0.94    1.00
  YS02001910YS02001907 CONDUIT   1482.72     0  02:02      1.89    0.84    1.00
  YS02001915YS02001910 CONDUIT   1483.33     0  02:02      1.89    0.74    1.00
  YS02001918YS02001915 CONDUIT    497.52     0  02:02      0.63    0.27    1.00
  YS02001920YS02001918 CONDUIT    497.55     0  02:02      0.64    0.48    1.00
  YS02001923YS02001920 CONDUIT    494.46     0  02:02      0.70    0.22    1.00
  YS02001926YS02001923 CONDUIT    493.80     0  02:02      0.96    0.71    1.00
  YS02001929YS02001926 CONDUIT    493.42     0  02:02      1.13    0.23    1.00
  YS02006553YS02006556 CONDUIT    797.91     0  02:20      1.02    0.68    1.00
  YS02006556YS02006558 CONDUIT    799.09     0  02:20      1.02    0.63    1.00
  YS02006558YS02006561 CONDUIT   1175.35     0  01:56      4.16    2.60    1.00
  YS02006561YS02001783 CONDUIT   1169.24     0  02:00      2.33    0.61    1.00
  YS02163301YS02001633 CONDUIT    920.65     0  01:55      1.17    0.87    1.00
  YS02163601YS02164001 CONDUIT   1377.56     0  01:55      1.75    1.22    1.00
  YS02164001YS02001641 CONDUIT   1377.43     0  01:55      1.75    1.88    1.00
  CC-R1                PUMP       683.00     0  00:00              1.00
  CC-R2                PUMP       683.00     0  00:00              1.00
  CC-S1                PUMP       200.00     0  00:00              1.00
  CC-S2                PUMP       200.00     0  00:00              1.00
  JK-R1                PUMP      1000.00     0  00:00              1.00
  JK-R2                PUMP      1000.00     0  00:00              1.00
  JK-S                 PUMP       300.00     0  00:00              1.00
  
  
  ***************************
  Flow Classification Summary
  ***************************
  
  -------------------------------------------------------------------------------------
                      Adjusted    ---------- Fraction of Time in Flow Class ---------- 
                       /Actual         Up    Down  Sub   Sup   Up    Down  Norm  Inlet 
  Conduit               Length    Dry  Dry   Dry   Crit  Crit  Crit  Crit  Ltd   Ctrl  
  -------------------------------------------------------------------------------------
  1                       1.00   0.00  0.00  0.00  0.00  1.00  0.00  0.00  0.35  0.00
  WS02003060WS02003069    1.00   0.00  0.00  0.00  0.99  0.01  0.00  0.00  0.60  0.00
  WS02003066WSF200        1.00   0.13  0.00  0.00  0.00  0.87  0.00  0.00  0.75  0.00
  WS02003067WS02003066    1.00   0.10  0.02  0.00  0.88  0.00  0.00  0.00  0.00  0.00
  WS02003069WS02003072    1.00   0.00  0.00  0.00  0.99  0.01  0.00  0.00  0.70  0.00
  WS02003072WS02003073    1.00   0.00  0.00  0.00  0.00  0.00  0.00  1.00  0.00  0.00
  WS02004401WS02004402    1.00   0.02  0.00  0.00  0.98  0.00  0.00  0.00  0.00  0.00
  WS02004402WS02004403    1.00   0.02  0.00  0.00  0.97  0.00  0.00  0.00  0.00  0.00
  WS02004403WS02004404    1.00   0.00  0.03  0.00  0.97  0.00  0.00  0.00  0.00  0.00
  WS02004404WS02004405    1.00   0.00  0.00  0.00  1.00  0.00  0.00  0.00  0.01  0.00
  WS02004405WS02004406    1.00   0.00  0.00  0.00  1.00  0.00  0.00  0.00  0.00  0.00
  WS02004406WS02004407    1.00   0.00  0.05  0.00  0.95  0.00  0.00  0.00  0.00  0.00
  WS02004407WS02004409    1.00   0.05  0.00  0.00  0.94  0.01  0.00  0.00  0.95  0.00
  WS02004409WS02004410    1.00   0.05  0.00  0.00  0.95  0.00  0.00  0.00  0.03  0.00
  WS02004410WS02004411    1.00   0.05  0.00  0.00  0.95  0.00  0.00  0.00  0.01  0.00
  WS02004411WS02004412    1.00   0.05  0.00  0.00  0.95  0.00  0.00  0.00  0.00  0.00
  WS02004412WS02004413    1.00   0.05  0.00  0.00  0.94  0.00  0.00  0.00  0.01  0.00
  WS02004413WS02003067    1.00   0.06  0.04  0.00  0.00  0.00  0.90  0.00  0.00  0.00
  WS02006109WS02006110    1.00   0.00  0.01  0.00  0.98  0.00  0.01  0.00  0.00  0.00
  WS02006110WS02006113    1.00   0.01  0.01  0.00  0.98  0.00  0.00  0.00  0.00  0.00
  WS02006111WS02006112    1.00   0.02  0.00  0.00  0.98  0.00  0.00  0.00  0.98  0.00
  WS02006112WS02006115    1.00   0.02  0.00  0.00  0.97  0.00  0.00  0.00  0.00  0.00
  WS02006113WS02006111    1.00   0.02  0.00  0.00  0.00  0.98  0.00  0.00  0.16  0.00
  WS02006115WS02006116    1.00   0.02  0.00  0.00  0.97  0.00  0.00  0.01  0.00  0.00
  WS02006116WS02004401    1.00   0.02  0.00  0.00  0.98  0.00  0.00  0.00  0.00  0.00
  WS02006228WS02006109    1.00   0.00  0.00  0.00  1.00  0.00  0.00  0.00  0.00  0.00
  WS02006229WS02006228    1.00   0.00  0.00  0.00  0.99  0.00  0.00  0.01  0.00  0.00
  WS02006230WS02006229    1.00   0.00  0.00  0.00  0.99  0.00  0.00  0.01  0.00  0.00
  WS02006231WS02006230    1.00   0.00  0.00  0.00  0.32  0.00  0.68  0.00  0.00  0.00
  WS02006232WS02006231    1.00   0.00  0.00  0.00  0.99  0.00  0.01  0.00  0.00  0.00
  WS02006234WS02006232    1.00   0.00  0.00  0.00  1.00  0.00  0.00  0.00  0.04  0.00
  WS02006235WS02006234    1.00   0.00  0.00  0.00  0.88  0.00  0.12  0.00  0.00  0.00
  WS02006238WS02006235    1.00   0.00  0.00  0.00  1.00  0.00  0.00  0.00  0.00  0.00
  WS02006239WS02006238    1.00   0.00  0.00  0.00  1.00  0.00  0.00  0.00  0.09  0.00
  WS02006240WS02006239    1.00   0.00  0.00  0.00  0.62  0.00  0.00  0.38  0.01  0.00
  WS02006242WS02006240    1.00   0.00  0.00  0.00  0.99  0.00  0.01  0.00  0.00  0.00
  WS02006243WS02006242    1.00   0.00  0.00  0.00  0.99  0.00  0.00  0.01  0.44  0.00
  WS02006245WS02006243    1.00   0.00  0.00  0.00  0.84  0.00  0.00  0.16  0.00  0.00
  WS02006247WS02006245    1.00   0.00  0.00  0.00  0.97  0.00  0.00  0.03  0.00  0.00
  WS02006248WS02006247    1.00   0.00  0.00  0.00  0.98  0.00  0.00  0.02  0.36  0.00
  WS02006249WS02006248    1.00   0.00  0.00  0.00  0.58  0.00  0.42  0.00  0.00  0.00
  WS02006251WS02006249    1.00   0.00  0.00  0.00  0.99  0.01  0.00  0.00  0.42  0.00
  WS02006252WS02006251    1.00   0.00  0.43  0.00  0.13  0.00  0.45  0.00  0.00  0.00
  WS02006256WS02006235    1.00   0.00  0.00  0.00  1.00  0.00  0.00  0.00  0.00  0.00
  WSF200WS02003060        1.00   0.00  0.13  0.00  0.31  0.57  0.00  0.00  0.41  0.00
  YS02001580YS02001583    1.00   0.23  0.57  0.00  0.20  0.00  0.00  0.00  0.66  0.00
  YS02001583YS02001586    1.00   0.42  0.33  0.00  0.25  0.00  0.00  0.00  0.66  0.00
  YS02001586YS02001590    1.00   0.13  0.00  0.00  0.43  0.04  0.00  0.40  0.36  0.00
  YS02001590YS02001593    1.00   0.13  0.01  0.00  0.12  0.00  0.74  0.00  0.00  0.00
  YS02001593YS02001596    1.00   0.13  0.00  0.00  0.14  0.01  0.00  0.71  0.02  0.00
  YS02001596YS02001600    1.00   0.14  0.00  0.00  0.20  0.01  0.00  0.65  0.04  0.00
  YS02001600YS02001601    1.00   0.13  0.01  0.00  0.86  0.00  0.00  0.00  0.60  0.00
  YS02001601YS02001602    1.00   0.13  0.01  0.00  0.87  0.00  0.00  0.00  0.00  0.00
  YS02001602YS02001605    1.00   0.14  0.00  0.00  0.86  0.00  0.00  0.00  0.00  0.00
  YS02001605YS02001607    1.00   0.14  0.00  0.00  0.86  0.00  0.00  0.00  0.00  0.00
  YS02001607YS02001610    1.00   0.13  0.01  0.00  0.86  0.00  0.00  0.00  0.01  0.00
  YS02001610YS02001613    1.00   0.13  0.00  0.00  0.87  0.00  0.00  0.00  0.00  0.00
  YS02001613YS02001616    1.00   0.13  0.00  0.00  0.87  0.00  0.00  0.00  0.00  0.00
  YS02001616YS02001619    1.00   0.13  0.00  0.00  0.87  0.00  0.00  0.00  0.00  0.00
  YS02001619YS02001622    1.00   0.13  0.00  0.00  0.87  0.00  0.00  0.00  0.29  0.00
  YS02001622YS02001625    1.00   0.13  0.00  0.00  0.87  0.00  0.00  0.00  0.04  0.00
  YS02001625YS02001629    1.00   0.13  0.05  0.00  0.17  0.00  0.66  0.00  0.00  0.00
  YS02001629YS02163301    1.00   0.15  0.01  0.00  0.84  0.00  0.00  0.00  0.00  0.00
  YS02001633YS02163601    1.00   0.00  0.01  0.00  0.99  0.00  0.00  0.00  0.15  0.00
  YS02001641YS02001644    1.00   0.00  0.01  0.00  0.99  0.00  0.00  0.00  0.00  0.00
  YS02001644YS02001647    1.00   0.00  0.17  0.00  0.83  0.00  0.00  0.00  0.00  0.00
  YS02001647YS02001649    1.00   0.00  0.17  0.00  0.55  0.28  0.00  0.00  0.56  0.00
  YS02001649YS02001757    1.00   0.00  0.00  0.00  0.84  0.16  0.00  0.00  0.42  0.00
  YS02001652YS02001649    1.00   0.00  0.00  0.00  0.96  0.03  0.00  0.00  0.74  0.00
  YS02001655YS02001652    1.00   0.00  0.00  0.00  0.19  0.01  0.00  0.80  0.04  0.00
  YS02001658YS02001655    1.00   0.00  0.14  0.00  0.67  0.18  0.00  0.00  0.67  0.00
  YS02001661YS02001658    1.00   0.14  0.00  0.00  0.51  0.35  0.00  0.00  0.68  0.00
  YS02001664YS02001661    1.00   0.13  0.00  0.00  0.78  0.10  0.00  0.00  0.85  0.00
  YS02001745YS02001748    1.00   0.00  0.00  0.00  0.11  0.01  0.00  0.88  0.05  0.00
  YS02001748YS02001751    1.00   0.00  0.00  0.00  0.84  0.16  0.00  0.00  0.76  0.00
  YS02001751YS02001754    1.00   0.00  0.00  0.00  0.17  0.01  0.00  0.83  0.02  0.00
  YS02001754YS02001757    1.00   0.00  0.00  0.00  1.00  0.00  0.00  0.00  0.82  0.00
  YS02001757CaochengTiaoxuchi    1.00   0.00  0.00  0.00  0.97  0.03  0.00  0.00  0.65  0.00
  YS02001759YS02001757    1.00   0.00  0.00  0.00  1.00  0.00  0.00  0.00  0.54  0.00
  YS02001762YS02001759    1.00   0.00  0.00  0.00  1.00  0.00  0.00  0.00  0.05  0.00
  YS02001765YS02001762    1.00   0.00  0.00  0.00  1.00  0.00  0.00  0.00  0.68  0.00
  YS02001767YS02001765    1.00   0.00  0.00  0.00  1.00  0.00  0.00  0.00  0.01  0.00
  YS02001770YS02001767    1.00   0.00  0.00  0.00  1.00  0.00  0.00  0.00  0.00  0.00
  YS02001774YS02001770    1.00   0.00  0.13  0.00  0.70  0.00  0.17  0.00  0.03  0.00
  YS02001779YS02001774    1.00   0.00  0.00  0.00  1.00  0.00  0.00  0.00  0.77  0.00
  YS02001783YS02001784    1.00   0.00  0.18  0.00  0.82  0.00  0.00  0.00  0.55  0.00
  YS02001784YS02001785    1.00   0.00  0.00  0.00  1.00  0.00  0.00  0.00  0.17  0.00
  YS02001786YS02001788    1.00   0.00  0.00  0.00  0.80  0.20  0.00  0.00  0.00  0.00
  YS02001788YS02001790    1.00   0.00  0.00  0.00  0.22  0.78  0.00  0.00  0.80  0.00
  YS02001790YS02001791    1.00   0.00  0.00  0.00  0.01  0.99  0.00  0.00  0.16  0.00
  YS02001791YS02001793    1.00   0.00  0.00  0.00  0.00  1.00  0.00  0.00  0.01  0.00
  YS02001793JiankangQianchi    1.00   0.00  0.00  0.00  0.99  0.01  0.00  0.00  0.94  0.00
  YS02001882YS02001884    1.00   0.15  0.01  0.00  0.84  0.00  0.00  0.00  0.00  0.00
  YS02001884YS02001887    1.00   0.06  0.05  0.00  0.89  0.00  0.00  0.00  0.00  0.00
  YS02001887YS02001890    1.00   0.00  0.00  0.00  0.97  0.00  0.03  0.00  0.00  0.00
  YS02001890YS02001895    1.00   0.00  0.16  0.00  0.84  0.00  0.00  0.00  0.00  0.00
  YS02001895YS02001898    1.00   0.16  0.00  0.00  0.82  0.00  0.02  0.00  0.00  0.00
  YS02001898YS02001901    1.00   0.17  0.00  0.00  0.83  0.00  0.00  0.00  0.01  0.00
  YS02001901YS02001904    1.00   0.17  0.00  0.00  0.83  0.00  0.00  0.00  0.00  0.00
  YS02001904YS02001907    1.00   0.00  0.16  0.00  0.83  0.00  0.00  0.00  0.00  0.00
  YS02001907YS02006553    1.00   0.00  0.02  0.00  0.98  0.00  0.00  0.00  0.00  0.00
  YS02001910YS02001907    1.00   0.00  0.00  0.00  0.97  0.00  0.00  0.03  0.12  0.00
  YS02001915YS02001910    1.00   0.00  0.00  0.00  0.97  0.03  0.00  0.00  0.16  0.00
  YS02001918YS02001915    1.00   0.00  0.01  0.00  0.98  0.02  0.00  0.00  0.74  0.00
  YS02001920YS02001918    1.00   0.00  0.01  0.00  0.99  0.00  0.00  0.00  0.00  0.00
  YS02001923YS02001920    1.00   0.00  0.00  0.00  1.00  0.00  0.00  0.00  0.92  0.00
  YS02001926YS02001923    1.00   0.00  0.07  0.00  0.06  0.00  0.86  0.00  0.00  0.00
  YS02001929YS02001926    1.00   0.00  0.13  0.00  0.87  0.00  0.00  0.00  0.82  0.00
  YS02006553YS02006556    1.00   0.01  0.00  0.00  0.99  0.00  0.00  0.00  0.03  0.00
  YS02006556YS02006558    1.00   0.00  0.00  0.00  1.00  0.00  0.00  0.00  0.00  0.00
  YS02006558YS02006561    1.00   0.18  0.00  0.00  0.06  0.76  0.00  0.00  0.18  0.00
  YS02006561YS02001783    1.00   0.18  0.00  0.00  0.09  0.73  0.00  0.00  0.68  0.00
  YS02163301YS02001633    1.00   0.00  0.15  0.00  0.85  0.00  0.00  0.00  0.00  0.00
  YS02163601YS02164001    1.00   0.00  0.08  0.00  0.92  0.00  0.00  0.00  0.00  0.00
  YS02164001YS02001641    1.00   0.01  0.07  0.00  0.92  0.00  0.00  0.00  0.05  0.00
  
  
  *************************
  Conduit Surcharge Summary
  *************************
  
  ----------------------------------------------------------------------------
                                                           Hours        Hours 
                         --------- Hours Full --------   Above Full   Capacity
  Conduit                Both Ends  Upstream  Dnstream   Normal Flow   Limited
  ----------------------------------------------------------------------------
  WS02003072WS02003073        0.01      0.01      0.01      1.28         0.01
  WS02004403WS02004404        0.01      0.01      0.03      0.01         0.01
  WS02004404WS02004405        0.01      0.03      0.01      4.08         0.01
  WS02004405WS02004406        0.01      0.01      0.01      0.83         0.01
  WS02006109WS02006110        0.78      0.78      2.22      0.91         0.01
  WS02006110WS02006113        0.01      0.01      2.16      0.01         0.01
  WS02006111WS02006112        0.01      0.01      3.01      0.01         0.01
  WS02006112WS02006115        0.01      0.01      1.06      0.01         0.01
  WS02006228WS02006109        2.07      2.22      2.07      3.23         2.07
  WS02006229WS02006228        2.05      2.09      2.05      2.76         2.04
  WS02006230WS02006229        2.44      2.65      2.44      4.49         2.44
  WS02006231WS02006230        0.78      0.78      0.99      4.31         0.01
  WS02006232WS02006231        0.94      0.94      2.24      1.00         0.01
  WS02006234WS02006232        2.01      2.01      2.24      0.98         0.97
  WS02006235WS02006234        1.27      1.28      2.06      4.17         0.02
  WS02006238WS02006235        2.10      2.10      2.25      0.01         0.01
  WS02006239WS02006238        2.15      2.23      2.16      2.49         1.87
  WS02006240WS02006239        2.03      2.09      2.05      2.46         1.73
  WS02006242WS02006240        2.03      2.03      2.37      2.83         0.01
  WS02006243WS02006242        2.06      2.06      2.24      0.01         0.05
  WS02006245WS02006243        2.04      2.05      2.04      1.67         1.29
  WS02006247WS02006245        2.04      2.10      2.04      3.97         2.02
  WS02006248WS02006247        2.04      2.04      2.08      0.01         0.05
  WS02006249WS02006248        2.01      2.01      2.05      3.92         0.01
  WS02006251WS02006249        2.04      2.05      2.05      2.64         1.97
  WS02006252WS02006251        2.71      2.71      2.75      2.72         0.01
  WS02006256WS02006235        4.23      4.28      7.30      1.22         0.01
  YS02001580YS02001583        0.65      0.65      0.71      0.01         0.01
  YS02001583YS02001586        0.66      0.66      0.79      0.01         0.01
  YS02001586YS02001590        0.80      0.80      0.87      0.01         0.01
  YS02001590YS02001593        0.87      0.87      0.89      0.91         0.01
  YS02001593YS02001596        0.88      0.88      0.98      0.01         0.01
  YS02001596YS02001600        1.03      1.03      1.14      0.01         0.01
  YS02001600YS02001601        1.20      1.20      1.46      0.01         0.01
  YS02001601YS02001602        1.37      1.37      1.50      1.13         0.01
  YS02001602YS02001605        1.33      1.33      1.37      2.27         0.01
  YS02001605YS02001607        1.29      1.33      1.29      1.43         1.29
  YS02001607YS02001610        0.86      0.86      0.89      0.01         0.01
  YS02001610YS02001613        0.85      0.85      0.89      0.01         0.01
  YS02001613YS02001616        0.81      0.81      0.85      0.01         0.01
  YS02001616YS02001619        0.80      0.80      0.81      0.01         0.03
  YS02001619YS02001622        0.80      0.80      0.80      0.85         0.76
  YS02001622YS02001625        0.80      0.80      0.98      0.01         0.01
  YS02001625YS02001629        0.75      0.75      0.98      0.01         0.01
  YS02001629YS02163301        0.98      0.98      0.99      0.06         0.15
  YS02001633YS02163601        1.01      1.01      1.04      0.31         0.30
  YS02001641YS02001644        0.93      0.96      0.93      1.53         0.91
  YS02001644YS02001647        0.72      0.72      0.93      0.04         0.01
  YS02001647YS02001649        0.72      0.72      0.85      0.01         0.01
  YS02001649YS02001757        0.85      0.85      0.92      0.08         0.04
  YS02001652YS02001649        0.67      0.67      0.85      0.01         0.01
  YS02001655YS02001652        0.47      0.47      0.64      0.01         0.01
  YS02001658YS02001655        0.25      0.25      0.47      0.01         0.01
  YS02001661YS02001658        0.05      0.05      0.25      0.01         0.01
  YS02001664YS02001661        0.01      0.01      0.11      0.01         0.01
  YS02001745YS02001748        0.01      0.01      0.20      0.01         0.01
  YS02001748YS02001751        0.23      0.23      0.35      0.01         0.01
  YS02001751YS02001754        0.35      0.35      0.55      0.01         0.01
  YS02001754YS02001757        0.60      0.60      0.92      0.01         0.01
  YS02001757CaochengTiaoxuchi        0.90      0.92      1.84      0.39         0.33
  YS02001759YS02001757        0.82      0.82      0.92      0.01         0.02
  YS02001762YS02001759        0.79      0.79      0.82      0.01         0.01
  YS02001765YS02001762        0.74      0.74      0.79      0.01         0.01
  YS02001767YS02001765        0.71      0.71      0.74      0.01         0.02
  YS02001770YS02001767        0.71      0.71      0.71      0.57         0.48
  YS02001774YS02001770        0.68      0.68      0.77      0.01         0.01
  YS02001779YS02001774        0.55      0.55      0.77      0.01         0.01
  YS02001783YS02001784        0.54      0.57      0.54      0.72         0.54
  YS02001784YS02001785        0.43      0.54      0.43      0.96         0.43
  YS02001786YS02001788        0.01      0.43      0.01      0.82         0.01
  YS02001790YS02001791        0.01      0.01      0.01      0.53         0.01
  YS02001793JiankangQianchi        0.01      0.01      7.35      0.01         0.01
  YS02001882YS02001884        0.52      0.52      0.53      0.01         0.01
  YS02001884YS02001887        0.55      0.55      0.56      0.01         0.01
  YS02001887YS02001890        0.57      0.57      0.59      0.13         0.01
  YS02001890YS02001895        0.50      0.50      0.60      0.01         0.01
  YS02001895YS02001898        0.50      0.50      0.50      0.01         0.01
  YS02001898YS02001901        0.51      0.51      0.55      0.01         0.01
  YS02001901YS02001904        0.54      0.54      0.55      0.01         0.01
  YS02001904YS02001907        0.54      0.54      0.81      0.01         0.01
  YS02001907YS02006553        0.97      0.97      1.04      0.01         0.01
  YS02001910YS02001907        0.60      0.60      0.78      0.01         0.01
  YS02001915YS02001910        0.51      0.51      0.60      0.01         0.01
  YS02001918YS02001915        0.43      0.43      0.51      0.01         0.01
  YS02001920YS02001918        0.43      0.43      0.44      0.01         0.01
  YS02001923YS02001920        0.39      0.39      0.44      0.01         0.01
  YS02001926YS02001923        0.12      0.12      0.15      0.01         0.01
  YS02001929YS02001926        0.01      0.01      0.15      0.01         0.01
  YS02006553YS02006556        0.69      0.69      0.80      0.01         0.01
  YS02006556YS02006558        0.75      0.75      0.82      0.01         0.01
  YS02006558YS02006561        0.46      0.68      0.46      0.91         0.46
  YS02006561YS02001783        0.39      0.39      0.57      0.01         0.01
  YS02163301YS02001633        0.99      0.99      1.03      0.01         0.01
  YS02163601YS02164001        0.96      0.96      1.04      0.07         0.01
  YS02164001YS02001641        0.96      0.96      0.96      0.70         0.66
  
  
  ***************
  Pumping Summary
  ***************
  
  ---------------------------------------------------------------------------------------------------------
                                                  Min       Avg       Max     Total     Power    % Time Off
                        Percent   Number of      Flow      Flow      Flow    Volume     Usage    Pump Curve
  Pump                 Utilized   Start-Ups       LPS       LPS       LPS  10^6 ltr     Kw-hr    Low   High
  ---------------------------------------------------------------------------------------------------------
  CC-R1                   17.37           2      0.00    683.00    683.00     3.417     64.61    0.0   10.8
  CC-R2                   16.47           3      0.00    683.00    683.00     3.240     61.32    0.0   11.5
  CC-S1                   43.16          19      0.00    200.00    200.00     2.486     14.84    0.0    0.0
  CC-S2                   41.79          21      0.00    200.00    200.00     2.407     14.66    0.0    0.0
  JK-R1                    7.82          13      0.00   1000.00   1000.00     2.253     25.84    0.0    0.0
  JK-R2                    1.92           8      0.00   1000.00   1000.00     0.552      5.28    0.0    0.0
  JK-S                    15.20          20      0.00    300.00    300.00     1.313     19.97    0.0    0.0
  

  Analysis begun on:  Wed Jan 15 10:41:41 2025
  Analysis ended on:  Wed Jan 15 10:41:42 2025
  Total elapsed time: 00:00:01