
  EPA STORM WATER MANAGEMENT MODEL - VERSION 5.2 (Build 5.2.4)
  PYSWMM TOOLKIT API - VERSION v1.0 (2023-11-27)
  ------------------------------------------------------------

  WARNING 04: minimum elevation drop used for Conduit WS02004404WS02004405
  WARNING 03: negative offset ignored for Link YS02001904YS02001907
  
  ****************
  Analysis Options
  ****************
  Flow Units ............... LPS
  Process Models:
    Rainfall/Runoff ........ YES
    RDII ................... NO
    Snowmelt ............... NO
    Groundwater ............ NO
    Flow Routing ........... YES
    Ponding Allowed ........ NO
    Water Quality .......... NO
  Infiltration Method ...... HORTON
  Flow Routing Method ...... DYNWAVE
  Surcharge Method ......... EXTRAN
  Starting Date ............ 08/28/2015 08:00:00
  Ending Date .............. 08/28/2015 16:00:00
  Antecedent Dry Days ...... 8.0
  Report Time Step ......... 00:01:00
  Wet Time Step ............ 00:01:00
  Dry Time Step ............ 00:01:00
  Routing Time Step ........ 30.00 sec
  Variable Time Step ....... YES
  Maximum Trials ........... 8
  Number of Threads ........ 4
  Head Tolerance ........... 0.001500 m
  
  
  **************************        Volume         Depth
  Runoff Quantity Continuity     hectare-m            mm
  **************************     ---------       -------
  Total Precipitation ......         2.689        81.080
  Evaporation Loss .........         0.000         0.000
  Infiltration Loss ........         0.100         3.015
  Surface Runoff ...........         2.557        77.092
  Final Storage ............         0.033         0.994
  Continuity Error (%) .....        -0.028
  
  
  **************************        Volume        Volume
  Flow Routing Continuity        hectare-m      10^6 ltr
  **************************     ---------     ---------
  Dry Weather Inflow .......         0.025         0.251
  Wet Weather Inflow .......         2.557        25.572
  Groundwater Inflow .......         0.000         0.000
  RDII Inflow ..............         0.000         0.000
  External Inflow ..........         0.083         0.834
  External Outflow .........         1.698        16.983
  Flooding Loss ............         1.021        10.207
  Evaporation Loss .........         0.000         0.000
  Exfiltration Loss ........         0.000         0.000
  Initial Stored Volume ....         0.243         2.431
  Final Stored Volume ......         0.195         1.950
  Continuity Error (%) .....        -0.178
  
  
  *************************
  Highest Continuity Errors
  *************************
  Node YS02001583 (-6.89%)
  Node YS02001884 (4.37%)
  
  
  ***************************
  Time-Step Critical Elements
  ***************************
  Link WS02006252WS02006251 (26.62%)
  Link WS02006238WS02006235 (22.40%)
  Link WS02004404WS02004405 (13.32%)
  Link WS02006235WS02006234 (11.95%)
  Link YS02001791YS02001793 (8.49%)
  
  
  ********************************
  Highest Flow Instability Indexes
  ********************************
  Link WS02006113WS02006111 (50)
  Link WS02006111WS02006112 (29)
  Link WS02006252WS02006251 (17)
  Link WS02006256WS02006235 (16)
  Link WS02006110WS02006113 (15)
  
  
  *********************************
  Most Frequent Nonconverging Nodes
  *********************************
  Node CC-1 (10.38%)
  Node CC-2 (10.38%)
  Node JK-1 (10.38%)
  Node JK-2 (10.38%)
  Node WSC (10.38%)
  
  
  *************************
  Routing Time Step Summary
  *************************
  Minimum Time Step           :     0.00 sec
  Average Time Step           :     2.25 sec
  Maximum Time Step           :     7.04 sec
  % of Time in Steady State   :     0.00
  Average Iterations per Step :     3.05
  % of Steps Not Converging   :    10.38
  Time Step Frequencies       :
     30.000 - 13.228 sec      :     0.00 %
     13.228 -  5.833 sec      :     9.26 %
      5.833 -  2.572 sec      :    24.65 %
      2.572 -  1.134 sec      :    29.70 %
      1.134 -  0.500 sec      :    36.39 %
  
  
  ***************************
  Subcatchment Runoff Summary
  ***************************
  
  ------------------------------------------------------------------------------------------------------------------------------
                            Total      Total      Total      Total     Imperv       Perv      Total       Total     Peak  Runoff
                           Precip      Runon       Evap      Infil     Runoff     Runoff     Runoff      Runoff   Runoff   Coeff
  Subcatchment                 mm         mm         mm         mm         mm         mm         mm    10^6 ltr      LPS
  ------------------------------------------------------------------------------------------------------------------------------
  sub60                     81.08       0.00       0.00       1.82      70.16       7.91      78.07        1.03   747.45   0.963
  sub61                     81.08       0.00       0.00       2.63      66.17      11.16      77.33        1.42  1036.27   0.954
  sub62                     81.08       0.00       0.00       1.21      73.32       5.28      78.59        2.15  1445.22   0.969
  sub63                     81.08       0.00       0.00       4.84      56.60      18.68      75.28        1.71  1152.95   0.929
  sub64                     81.08       0.00       0.00       2.45      67.72       9.72      77.44        1.86  1179.77   0.955
  sub65                     81.08       0.00       0.00       2.12      69.29       8.42      77.72        2.14  1316.60   0.959
  sub66                     81.08       0.00       0.00       5.99      56.50      17.53      74.02        3.45  1710.42   0.913
  sub67                     81.08       0.00       0.00       1.17      73.36       5.32      78.68        1.46  1119.82   0.970
  sub68                     81.08       0.00       0.00       2.18      68.55       9.17      77.73        2.14  1489.04   0.959
  sub69                     81.08       0.00       0.00       1.94      68.81      10.23      79.04        2.93  1752.10   0.975
  sub70                     81.08       0.00       0.00       6.48      53.35      21.09      74.44        2.15   958.43   0.918
  sub71                     81.08       0.00       0.00       1.24      73.27       5.25      78.52        2.05  1275.74   0.968
  sub72                     81.08       0.00       0.00       1.10      74.01       4.57      78.58        1.08   613.87   0.969
  
  
  ******************
  Node Depth Summary
  ******************
  
  ---------------------------------------------------------------------------------
                                 Average  Maximum  Maximum  Time of Max    Reported
                                   Depth    Depth      HGL   Occurrence   Max Depth
  Node                 Type       Meters   Meters   Meters  days hr:min      Meters
  ---------------------------------------------------------------------------------
  WS02003060           JUNCTION     0.25     0.38     5.32     0  03:05        0.38
  WS02003066           JUNCTION     0.21     0.30     5.85     0  03:04        0.30
  WS02003067           JUNCTION     0.53     0.70     6.02     0  03:04        0.70
  WS02003069           JUNCTION     0.28     0.43     5.01     0  03:03        0.43
  WS02003072           JUNCTION     0.35     0.50     4.87     0  03:04        0.50
  WS02003073           JUNCTION     0.20     0.30     4.36     0  03:04        0.30
  WS02004401           JUNCTION     0.62     0.85     6.85     0  03:02        0.85
  WS02004402           JUNCTION     0.65     0.88     6.84     0  03:02        0.88
  WS02004403           JUNCTION     0.67     0.89     6.82     0  03:00        0.89
  WS02004404           JUNCTION     0.75     0.96     6.81     0  03:00        0.96
  WS02004405           JUNCTION     0.74     0.96     6.81     0  03:03        0.96
  WS02004406           JUNCTION     0.76     0.96     6.79     0  03:00        0.96
  WS02004407           JUNCTION     0.19     0.30     6.61     0  03:00        0.30
  WS02004409           JUNCTION     0.43     0.67     6.44     0  03:02        0.67
  WS02004410           JUNCTION     0.45     0.68     6.40     0  03:03        0.68
  WS02004411           JUNCTION     0.47     0.69     6.37     0  03:03        0.69
  WS02004412           JUNCTION     0.49     0.70     6.34     0  03:04        0.70
  WS02004413           JUNCTION     0.65     0.86     6.33     0  03:04        0.86
  WS02006109           JUNCTION     0.69     1.31     7.93     0  02:21        0.98
  WS02006110           JUNCTION     0.69     1.43     8.02     0  02:21        0.92
  WS02006111           JUNCTION     0.19     0.29     6.99     0  02:45        0.29
  WS02006112           JUNCTION     0.78     1.06     6.94     0  02:29        1.05
  WS02006113           JUNCTION     0.30     0.46     7.35     0  02:45        0.45
  WS02006115           JUNCTION     0.51     0.75     6.89     0  03:02        0.75
  WS02006116           JUNCTION     0.59     0.83     6.87     0  03:02        0.83
  WS02006228           JUNCTION     0.68     1.26     7.91     0  02:06        1.02
  WS02006229           JUNCTION     0.66     1.31     8.01     0  02:21        1.03
  WS02006230           JUNCTION     0.66     1.57     8.31     0  02:06        1.14
  WS02006231           JUNCTION     0.46     1.25     8.38     0  02:21        0.91
  WS02006232           JUNCTION     0.59     1.44     8.48     0  02:21        1.12
  WS02006234           JUNCTION     0.53     1.46     8.62     0  02:21        1.15
  WS02006235           JUNCTION     0.56     1.53     8.70     0  02:21        1.24
  WS02006238           JUNCTION     0.59     1.57     8.71     0  02:21        1.27
  WS02006239           JUNCTION     0.57     1.72     8.93     0  02:06        1.72
  WS02006240           JUNCTION     0.54     1.90     9.20     0  02:06        1.90
  WS02006242           JUNCTION     0.62     1.55     8.82     0  02:06        1.55
  WS02006243           JUNCTION     0.54     1.48     8.90     0  02:06        1.48
  WS02006245           JUNCTION     0.54     1.56     9.04     0  02:06        1.56
  WS02006247           JUNCTION     0.56     1.47     8.97     0  02:06        1.47
  WS02006248           JUNCTION     0.52     1.10     8.69     0  02:06        1.10
  WS02006249           JUNCTION     0.55     1.09     8.69     0  01:49        1.09
  WS02006251           JUNCTION     0.55     1.32     8.99     0  02:06        1.24
  WS02006252           JUNCTION     0.39     1.50     9.74     0  00:00        1.47
  WS02006256           JUNCTION     0.95     2.35     9.28     0  00:00        2.35
  WSF200               JUNCTION     0.18     0.29     5.52     0  03:04        0.29
  YS02001580           JUNCTION     0.11     1.05     9.59     0  01:43        0.78
  YS02001583           JUNCTION     0.14     1.14     9.64     0  01:43        0.82
  YS02001586           JUNCTION     0.22     1.13     9.30     0  01:43        1.13
  YS02001590           JUNCTION     0.32     1.39     9.26     0  01:43        1.37
  YS02001593           JUNCTION     0.25     1.34     9.20     0  01:43        1.29
  YS02001596           JUNCTION     0.34     1.69     9.11     0  01:43        1.65
  YS02001600           JUNCTION     0.41     1.87     9.00     0  01:43        1.87
  YS02001601           JUNCTION     0.59     2.06     8.90     0  01:42        2.06
  YS02001602           JUNCTION     0.50     1.87     8.77     0  01:42        1.87
  YS02001605           JUNCTION     0.47     1.78     8.68     0  01:42        1.78
  YS02001607           JUNCTION     0.46     1.68     8.53     0  02:06        1.68
  YS02001610           JUNCTION     0.51     1.68     8.48     0  01:42        1.68
  YS02001613           JUNCTION     0.47     1.67     8.51     0  01:48        1.66
  YS02001616           JUNCTION     0.40     1.61     8.52     0  01:46        1.61
  YS02001619           JUNCTION     0.37     1.61     8.54     0  01:42        1.61
  YS02001622           JUNCTION     0.36     1.62     8.52     0  01:42        1.58
  YS02001625           JUNCTION     0.63     1.78     8.38     0  01:42        1.78
  YS02001629           JUNCTION     0.49     1.85     8.40     0  01:42        1.85
  YS02001633           JUNCTION     0.57     2.08     8.53     0  01:46        2.08
  YS02001641           JUNCTION     0.55     2.10     8.54     0  01:46        2.10
  YS02001644           JUNCTION     0.55     1.92     8.35     0  01:44        1.92
  YS02001647           JUNCTION     0.34     1.85     8.46     0  01:44        1.78
  YS02001649           JUNCTION     0.39     2.05     8.44     0  01:46        2.04
  YS02001652           JUNCTION     0.28     2.04     8.64     0  01:46        1.86
  YS02001655           JUNCTION     0.22     2.16     9.01     0  01:46        1.67
  YS02001658           JUNCTION     0.16     2.25     9.39     0  01:46        1.45
  YS02001661           JUNCTION     0.18     1.72     9.13     0  01:46        1.26
  YS02001664           JUNCTION     0.06     1.00     8.92     0  01:47        0.76
  YS02001745           JUNCTION     0.08     2.10     9.62     0  01:46        0.99
  YS02001748           JUNCTION     0.16     2.27     9.35     0  01:46        1.35
  YS02001751           JUNCTION     0.19     2.20     9.08     0  01:46        1.49
  YS02001754           JUNCTION     0.25     2.20     8.81     0  01:46        1.73
  YS02001757           JUNCTION     0.42     2.21     8.47     0  01:46        2.05
  YS02001759           JUNCTION     0.36     2.21     8.57     0  01:46        2.05
  YS02001762           JUNCTION     0.35     2.15     8.55     0  01:46        2.03
  YS02001765           JUNCTION     0.33     2.10     8.55     0  01:46        1.98
  YS02001767           JUNCTION     0.32     2.03     8.52     0  01:46        1.94
  YS02001770           JUNCTION     0.33     1.95     8.44     0  01:46        1.95
  YS02001774           JUNCTION     0.40     2.00     8.42     0  01:49        1.99
  YS02001779           JUNCTION     0.24     1.68     8.37     0  01:45        1.68
  YS02001783           JUNCTION     0.25     1.36     7.50     0  01:45        1.24
  YS02001784           JUNCTION     0.26     1.19     7.26     0  01:45        1.13
  YS02001786           JUNCTION     0.22     0.93     6.96     0  01:45        0.88
  YS02001788           JUNCTION     0.16     0.63     6.61     0  01:47        0.63
  YS02001790           JUNCTION     0.19     0.73     6.37     0  01:48        0.72
  YS02001791           JUNCTION     0.12     0.44     5.91     0  01:47        0.43
  YS02001793           JUNCTION     0.06     0.31     5.14     0  01:48        0.28
  YS02001882           JUNCTION     0.33     1.83     8.55     0  01:44        1.83
  YS02001884           JUNCTION     0.42     1.93     8.55     0  01:44        1.93
  YS02001887           JUNCTION     0.49     1.94     8.48     0  01:44        1.94
  YS02001890           JUNCTION     0.52     1.81     8.32     0  01:44        1.81
  YS02001895           JUNCTION     0.29     1.58     8.33     0  01:45        1.58
  YS02001898           JUNCTION     0.30     1.61     8.35     0  02:06        1.61
  YS02001901           JUNCTION     0.42     1.70     8.31     0  01:45        1.70
  YS02001904           JUNCTION     0.40     1.65     8.28     0  01:45        1.65
  YS02001907           JUNCTION     0.72     1.96     8.25     0  01:44        1.96
  YS02001910           JUNCTION     0.52     2.01     8.51     0  01:45        1.99
  YS02001915           JUNCTION     0.33     1.99     8.71     0  01:50        1.97
  YS02001918           JUNCTION     0.19     1.81     8.88     0  01:45        1.68
  YS02001920           JUNCTION     0.27     2.14     9.15     0  01:45        1.76
  YS02001923           JUNCTION     0.15     2.03     9.29     0  01:45        1.53
  YS02001926           JUNCTION     0.18     1.90     9.35     0  01:45        1.37
  YS02001929           JUNCTION     0.10     1.78     9.47     0  01:45        1.15
  YS02006553           JUNCTION     0.72     2.00     8.29     0  01:45        1.99
  YS02006556           JUNCTION     0.69     2.00     8.32     0  01:45        1.99
  YS02006558           JUNCTION     0.74     2.08     8.35     0  01:46        2.08
  YS02006561           JUNCTION     0.16     1.09     7.75     0  01:45        0.94
  YS02163301           JUNCTION     0.51     1.99     8.51     0  01:46        1.99
  YS02163601           JUNCTION     0.61     2.08     8.48     0  01:46        2.08
  YS02164001           JUNCTION     0.54     2.10     8.56     0  01:46        2.10
  CC-1                 OUTFALL      0.00     0.00     0.00     0  00:00        0.00
  CC-2                 OUTFALL      0.00     0.00     0.00     0  00:00        0.00
  JK-1                 OUTFALL      0.00     0.00     0.00     0  00:00        0.00
  JK-2                 OUTFALL      0.00     0.00     0.00     0  00:00        0.00
  WSC                  OUTFALL      0.20     0.30     0.97     0  03:05        0.30
  CC-storage           STORAGE      0.90     1.77     7.27     0  02:25        1.77
  JK-storage           STORAGE      2.90     4.23     5.03     0  01:48        4.18
  
  
  *******************
  Node Inflow Summary
  *******************
  
  -------------------------------------------------------------------------------------------------
                                  Maximum  Maximum                  Lateral       Total        Flow
                                  Lateral    Total  Time of Max      Inflow      Inflow     Balance
                                   Inflow   Inflow   Occurrence      Volume      Volume       Error
  Node                 Type           LPS      LPS  days hr:min    10^6 ltr    10^6 ltr     Percent
  -------------------------------------------------------------------------------------------------
  WS02003060           JUNCTION     16.53   552.88     0  03:04       0.476        6.32       0.036
  WS02003066           JUNCTION      0.00   536.33     0  03:04           0        5.85       0.023
  WS02003067           JUNCTION      0.00   536.32     0  03:04           0        5.85       0.071
  WS02003069           JUNCTION      0.32   553.17     0  03:05     0.00922        6.33       0.061
  WS02003072           JUNCTION      0.00   553.13     0  03:03           0        6.33       0.108
  WS02003073           JUNCTION      1.82   554.95     0  03:04      0.0524        6.37       0.087
  WS02004401           JUNCTION      0.00   537.00     0  03:02           0        5.96       0.172
  WS02004402           JUNCTION      0.00   536.87     0  03:01           0        5.94       0.174
  WS02004403           JUNCTION      0.00   536.75     0  02:57           0        5.93       0.170
  WS02004404           JUNCTION      0.16   536.72     0  03:02     0.00467        5.93       0.142
  WS02004405           JUNCTION      0.04   536.80     0  03:00      0.0011        5.92       0.212
  WS02004406           JUNCTION      0.00   536.94     0  03:00           0        5.91       0.351
  WS02004407           JUNCTION      0.00   536.66     0  03:00           0        5.89       0.020
  WS02004409           JUNCTION      0.00   536.56     0  03:00           0        5.89       0.045
  WS02004410           JUNCTION      0.00   536.45     0  03:01           0        5.88       0.073
  WS02004411           JUNCTION      0.00   536.39     0  03:03           0        5.88       0.094
  WS02004412           JUNCTION      0.00   536.40     0  03:03           0        5.88       0.126
  WS02004413           JUNCTION      0.00   536.35     0  03:04           0        5.87       0.224
  WS02006109           JUNCTION      1.23   561.84     0  02:06      0.0354           6       0.160
  WS02006110           JUNCTION      0.00   562.77     0  02:06           0        5.99       0.112
  WS02006111           JUNCTION      0.00   560.67     0  03:01           0        5.99       0.008
  WS02006112           JUNCTION      0.00   542.60     0  02:45           0        5.99       0.294
  WS02006113           JUNCTION      0.00   569.75     0  02:21           0        5.99       0.037
  WS02006115           JUNCTION      0.00   549.94     0  03:06           0        5.97       0.109
  WS02006116           JUNCTION      0.00   538.02     0  03:02           0        5.96       0.098
  WS02006228           JUNCTION      0.00   559.22     0  02:06           0        5.97       0.067
  WS02006229           JUNCTION      0.00   559.43     0  02:06           0        5.98       0.076
  WS02006230           JUNCTION     10.28   592.06     0  03:15       0.296        5.98       0.075
  WS02006231           JUNCTION      0.00   576.11     0  02:42           0        5.68      -0.011
  WS02006232           JUNCTION      0.00   575.27     0  02:42           0        5.69       0.156
  WS02006234           JUNCTION      0.00   570.31     0  02:42           0        5.69      -0.130
  WS02006235           JUNCTION      0.00   562.45     0  02:42           0        5.73       0.142
  WS02006238           JUNCTION      0.00   431.65     0  03:16           0        5.04      -0.218
  WS02006239           JUNCTION      0.00   431.41     0  03:16           0        5.01      -0.157
  WS02006240           JUNCTION      0.00   428.64     0  03:16           0        4.99      -0.033
  WS02006242           JUNCTION      0.00   428.10     0  03:16           0        4.98       0.012
  WS02006243           JUNCTION      0.00   427.14     0  03:16           0        4.97      -0.079
  WS02006245           JUNCTION      0.00   427.27     0  03:15           0        4.98       0.331
  WS02006247           JUNCTION      0.00   427.03     0  03:15           0        4.98       0.020
  WS02006248           JUNCTION      0.00   426.54     0  03:15           0        4.99       0.037
  WS02006249           JUNCTION      0.00   459.02     0  00:00           0         5.2       0.336
  WS02006251           JUNCTION      0.08   411.31     0  02:06     0.00222         5.2       0.006
  WS02006252           JUNCTION      0.00   400.00     0  00:00           0        5.18      -0.180
  WS02006256           JUNCTION      0.00   300.00     0  00:00           0        1.04      -0.709
  WSF200               JUNCTION      0.00   536.33     0  03:04           0        5.85       0.007
  YS02001580           JUNCTION      0.00   121.89     0  01:42           0     0.00431      -0.638
  YS02001583           JUNCTION      0.00   199.77     0  01:42           0      0.0152      -6.449
  YS02001586           JUNCTION    958.43   958.62     0  01:53        2.15        2.16       0.069
  YS02001590           JUNCTION      0.00   318.38     0  02:07           0        1.48      -0.032
  YS02001593           JUNCTION      0.00   318.10     0  02:07           0        1.48       0.004
  YS02001596           JUNCTION      0.00   318.07     0  02:00           0        1.48      -0.010
  YS02001600           JUNCTION      0.00   318.07     0  02:10           0        1.48      -0.001
  YS02001601           JUNCTION   1752.10  2069.81     0  01:51        2.93         4.4       0.013
  YS02001602           JUNCTION      0.00   546.83     0  01:42           0         2.4       0.012
  YS02001605           JUNCTION      0.00   547.48     0  01:42           0        2.25       0.014
  YS02001607           JUNCTION      0.00   547.61     0  01:42           0        2.25       0.082
  YS02001610           JUNCTION      0.00   950.83     0  01:54           0        2.75       0.081
  YS02001613           JUNCTION      0.00   614.80     0  01:54           0        2.13       0.070
  YS02001616           JUNCTION      0.00   614.76     0  01:54           0        2.13       0.011
  YS02001619           JUNCTION   1710.42  1710.42     0  01:52        3.45        5.08      -0.003
  YS02001622           JUNCTION      0.00  1053.77     0  01:52           0        4.57      -0.016
  YS02001625           JUNCTION      0.00  1491.04     0  01:54           0         4.9       0.180
  YS02001629           JUNCTION      0.00   957.42     0  01:42           0        3.63      -0.002
  YS02001633           JUNCTION   1316.80  1423.54     0  01:44        2.15         5.3       0.060
  YS02001641           JUNCTION      0.00  1420.02     0  01:44           0        4.84       0.052
  YS02001644           JUNCTION   1179.81  1867.68     0  01:44        1.86         6.7       0.042
  YS02001647           JUNCTION      0.00  1867.65     0  01:44           0        5.71       0.005
  YS02001649           JUNCTION      0.00  2173.63     0  01:44           0        7.42      -0.001
  YS02001652           JUNCTION      0.00  1180.49     0  01:50           0        1.71      -0.097
  YS02001655           JUNCTION      0.15  1179.69     0  01:50     0.00443        1.71       0.037
  YS02001658           JUNCTION      0.00  1179.46     0  01:50           0        1.71      -0.064
  YS02001661           JUNCTION      0.00  1178.86     0  01:50           0        1.71       0.005
  YS02001664           JUNCTION   1152.95  1152.95     0  01:50        1.71        1.71      -0.018
  YS02001745           JUNCTION    747.46   747.46     0  01:50        1.03        1.03       0.146
  YS02001748           JUNCTION      0.04   757.88     0  01:50      0.0013        1.03      -0.298
  YS02001751           JUNCTION      0.01   759.33     0  01:50    0.000317        1.04       0.114
  YS02001754           JUNCTION      0.26   759.28     0  01:50     0.00749        1.05      -0.207
  YS02001757           JUNCTION      0.00  3578.46     0  01:47           0        11.6       0.033
  YS02001759           JUNCTION   1036.31  1507.02     0  01:46        1.42         3.1      -0.015
  YS02001762           JUNCTION      0.00   855.99     0  01:46           0        1.68      -0.008
  YS02001765           JUNCTION      0.00   858.18     0  01:46           0        1.68       0.010
  YS02001767           JUNCTION      0.54   861.24     0  01:46      0.0154        1.68      -0.006
  YS02001770           JUNCTION   1445.37  1445.37     0  01:50        2.16         2.2      -0.012
  YS02001774           JUNCTION      0.00   850.82     0  01:52           0       0.525       0.228
  YS02001779           JUNCTION      0.01   850.89     0  01:52    0.000144       0.481      -0.289
  YS02001783           JUNCTION      0.00  1170.82     0  01:47           0        4.42       0.003
  YS02001784           JUNCTION      1.06  1172.15     0  01:47      0.0305        4.45       0.009
  YS02001786           JUNCTION      0.06  1172.10     0  01:47     0.00162        4.45       0.014
  YS02001788           JUNCTION      0.07  1172.48     0  01:48     0.00204        4.45       0.007
  YS02001790           JUNCTION      0.15  1184.67     0  01:49     0.00446        4.46       0.028
  YS02001791           JUNCTION      0.00  1302.32     0  01:48           0        4.46      -0.032
  YS02001793           JUNCTION      0.00  1260.28     0  01:51           0        4.46       0.005
  YS02001882           JUNCTION      0.00    51.78     0  01:43           0      0.0128       3.268
  YS02001884           JUNCTION      0.00    95.06     0  01:43           0      0.0489       4.569
  YS02001887           JUNCTION   1120.27  1120.27     0  01:50        1.48        1.51       0.283
  YS02001890           JUNCTION      0.00  1120.86     0  01:50           0        1.47       0.334
  YS02001895           JUNCTION      0.00   519.86     0  01:44           0        1.21       0.119
  YS02001898           JUNCTION      0.00   523.34     0  01:44           0        1.21      -0.028
  YS02001901           JUNCTION      0.00   527.72     0  01:44           0        1.22       0.263
  YS02001904           JUNCTION      0.00   529.46     0  01:44           0        1.22       0.196
  YS02001907           JUNCTION      0.00  2720.41     0  01:50           0        4.51       0.391
  YS02001910           JUNCTION      0.00  1889.00     0  01:50           0        3.21       0.225
  YS02001915           JUNCTION   1275.76  1889.14     0  01:51        2.05        3.26       0.034
  YS02001918           JUNCTION      0.00   618.41     0  01:52           0        1.24       0.019
  YS02001920           JUNCTION      2.87   618.13     0  01:52      0.0827        1.22       0.068
  YS02001923           JUNCTION      0.04   615.69     0  01:52     0.00109        1.12      -0.049
  YS02001926           JUNCTION      0.05   854.56     0  01:45      0.0015         1.1      -0.121
  YS02001929           JUNCTION    613.87   688.36     0  01:45        1.08        1.09      -0.039
  YS02006553           JUNCTION      0.00   798.17     0  02:12           0        2.47       0.482
  YS02006556           JUNCTION      0.00   798.26     0  02:12           0        2.48       0.323
  YS02006558           JUNCTION   1489.92  1489.92     0  01:50        2.16        4.54       0.074
  YS02006561           JUNCTION      0.00  1171.05     0  01:47           0        4.42      -0.002
  YS02163301           JUNCTION      0.00   929.65     0  01:44           0        3.61       0.037
  YS02163601           JUNCTION      0.11  1422.36     0  01:44     0.00317        4.84       0.094
  YS02164001           JUNCTION      0.00  1420.74     0  01:44           0        4.84       0.037
  CC-1                 OUTFALL       0.00   683.00     0  00:00           0        3.81       0.000
  CC-2                 OUTFALL       0.00   683.00     0  00:00           0        3.43       0.000
  JK-1                 OUTFALL       0.00  1000.00     0  00:00           0         2.7       0.000
  JK-2                 OUTFALL       0.00  1000.00     0  00:00           0       0.683       0.000
  WSC                  OUTFALL       0.00   554.94     0  03:05           0        6.37       0.000
  CC-storage           STORAGE       0.00  3578.27     0  01:47           0        13.8      -0.225
  JK-storage           STORAGE       0.00  1238.70     0  01:59           0        4.61       0.121
  
  
  **********************
  Node Surcharge Summary
  **********************
  
  Surcharging occurs when water rises above the top of the highest conduit.
  ---------------------------------------------------------------------
                                               Max. Height   Min. Depth
                                   Hours       Above Crown    Below Rim
  Node                 Type      Surcharged         Meters       Meters
  ---------------------------------------------------------------------
  WS02006109           JUNCTION        2.55          0.488        1.332
  WS02006110           JUNCTION        0.66          0.523        1.327
  WS02006112           JUNCTION        0.62          0.058        1.622
  WS02006228           JUNCTION        2.53          0.433        1.767
  WS02006229           JUNCTION        2.57          0.511        1.939
  WS02006230           JUNCTION        0.68          0.487        1.083
  WS02006231           JUNCTION        0.76          0.542        0.988
  WS02006232           JUNCTION        2.77          0.739        0.741
  WS02006234           JUNCTION        1.04          0.741        0.499
  WS02006235           JUNCTION        2.54          0.822        0.468
  WS02006238           JUNCTION        2.65          0.848        0.582
  WS02006239           JUNCTION        2.54          0.984        0.306
  WS02006240           JUNCTION        2.56          1.194        0.196
  WS02006242           JUNCTION        2.82          0.820        0.000
  WS02006243           JUNCTION        2.59          0.770        0.000
  WS02006245           JUNCTION        2.59          0.850        0.000
  WS02006247           JUNCTION        2.64          0.760        0.000
  WS02006248           JUNCTION        2.57          0.380        0.000
  WS02006249           JUNCTION        2.62          0.390        0.000
  WS02006251           JUNCTION        0.81          0.292        0.888
  WS02006252           JUNCTION        3.30          1.100        0.000
  WS02006256           JUNCTION        7.02          2.050        0.000
  YS02001580           JUNCTION        0.76          0.450        0.000
  YS02001583           JUNCTION        0.77          0.500        0.000
  YS02001586           JUNCTION        0.91          0.510        0.000
  YS02001590           JUNCTION        0.99          0.745        0.005
  YS02001593           JUNCTION        0.99          0.718        0.122
  YS02001596           JUNCTION        1.10          0.956        0.114
  YS02001600           JUNCTION        1.26          1.190        0.000
  YS02001601           JUNCTION        1.57          1.440        0.000
  YS02001602           JUNCTION        1.49          1.270        0.000
  YS02001605           JUNCTION        1.44          1.180        0.000
  YS02001607           JUNCTION        0.99          0.680        0.000
  YS02001610           JUNCTION        1.01          0.680        0.000
  YS02001613           JUNCTION        0.98          0.669        0.031
  YS02001616           JUNCTION        0.94          0.610        0.000
  YS02001619           JUNCTION        0.92          0.610        0.000
  YS02001622           JUNCTION        0.92          0.620        0.000
  YS02001625           JUNCTION        1.11          0.780        0.000
  YS02001629           JUNCTION        0.88          0.470        0.000
  YS02001633           JUNCTION        1.14          1.060        0.000
  YS02001641           JUNCTION        1.10          1.100        0.000
  YS02001644           JUNCTION        1.08          0.920        0.000
  YS02001647           JUNCTION        0.87          0.846        0.054
  YS02001649           JUNCTION        1.01          1.050        0.000
  YS02001652           JUNCTION        0.80          1.015        0.115
  YS02001655           JUNCTION        0.60          1.160        0.040
  YS02001658           JUNCTION        0.32          1.249        0.051
  YS02001661           JUNCTION        0.13          0.651        0.739
  YS02001745           JUNCTION        0.01          1.101        0.249
  YS02001748           JUNCTION        0.26          1.190        0.000
  YS02001751           JUNCTION        0.44          1.200        0.000
  YS02001754           JUNCTION        0.70          1.150        0.000
  YS02001757           JUNCTION        1.09          1.210        0.000
  YS02001759           JUNCTION        0.99          1.210        0.000
  YS02001762           JUNCTION        0.96          1.150        0.000
  YS02001765           JUNCTION        0.91          1.100        0.000
  YS02001767           JUNCTION        0.87          1.030        0.000
  YS02001770           JUNCTION        0.84          0.920        0.000
  YS02001774           JUNCTION        0.93          1.001        0.049
  YS02001779           JUNCTION        0.69          0.680        0.000
  YS02001783           JUNCTION        0.65          0.556        1.044
  YS02001784           JUNCTION        0.62          0.392        1.098
  YS02001786           JUNCTION        0.52          0.132        1.298
  YS02001882           JUNCTION        0.59          0.830        0.000
  YS02001884           JUNCTION        0.60          0.870        0.000
  YS02001887           JUNCTION        0.64          0.888        0.062
  YS02001890           JUNCTION        0.65          0.760        0.000
  YS02001895           JUNCTION        0.58          0.582        0.168
  YS02001898           JUNCTION        0.58          0.580        0.160
  YS02001901           JUNCTION        0.63          0.697        0.173
  YS02001904           JUNCTION        0.62          0.653        0.197
  YS02001907           JUNCTION        0.85          0.950        0.000
  YS02001910           JUNCTION        0.68          1.007        0.093
  YS02001915           JUNCTION        0.59          0.991        0.009
  YS02001918           JUNCTION        0.50          0.810        0.000
  YS02001920           JUNCTION        0.52          1.140        0.000
  YS02001923           JUNCTION        0.20          0.820        0.000
  YS02001926           JUNCTION        0.22          0.900        0.000
  YS02001929           JUNCTION        0.10          0.780        0.000
  YS02006553           JUNCTION        0.87          1.002        0.188
  YS02006556           JUNCTION        0.77          0.965        0.385
  YS02006558           JUNCTION        0.76          0.980        0.420
  YS02006561           JUNCTION        0.47          0.295        0.855
  YS02163301           JUNCTION        1.12          0.989        0.041
  YS02163601           JUNCTION        1.18          1.080        0.000
  YS02164001           JUNCTION        1.10          1.100        0.000
  
  
  *********************
  Node Flooding Summary
  *********************
  
  Flooding refers to all water that overflows a node, whether it ponds or not.
  --------------------------------------------------------------------------
                                                             Total   Maximum
                                 Maximum   Time of Max       Flood    Ponded
                        Hours       Rate    Occurrence      Volume     Depth
  Node                 Flooded       LPS   days hr:min    10^6 ltr    Meters
  --------------------------------------------------------------------------
  WS02006242              0.01      2.66      0  02:06       0.000     0.000
  WS02006243              0.01      2.74      0  02:06       0.000     0.000
  WS02006245              0.01      3.92      0  02:06       0.000     0.000
  WS02006247              0.01      4.69      0  02:06       0.000     0.000
  WS02006248              0.01     19.65      0  02:06       0.000     0.000
  WS02006249              0.79     84.02      0  01:49       0.192     0.000
  WS02006252              0.01    245.63      0  00:00       0.000     0.000
  WS02006256              0.96    293.19      0  00:00       0.342     0.000
  YS02001580              0.01     87.21      0  01:43       0.000     0.000
  YS02001583              0.01     94.69      0  01:43       0.000     0.000
  YS02001586              0.64    641.05      0  01:53       0.672     0.000
  YS02001600              0.01      1.32      0  01:43       0.000     0.000
  YS02001601              0.83   1671.66      0  01:51       2.002     0.000
  YS02001602              0.74     61.97      0  02:09       0.152     0.000
  YS02001605              0.01      5.53      0  01:42       0.000     0.000
  YS02001607              0.01      0.56      0  02:06       0.000     0.000
  YS02001610              0.65    950.82      0  01:54       1.113     0.000
  YS02001616              0.03      2.23      0  01:52       0.000     0.000
  YS02001619              0.09    104.20      0  01:42       0.009     0.000
  YS02001622              0.01    139.59      0  01:42       0.000     0.000
  YS02001625              0.62   1491.00      0  01:54       1.721     0.000
  YS02001629              0.19    409.74      0  01:49       0.149     0.000
  YS02001633              0.01      4.81      0  01:46       0.000     0.000
  YS02001641              0.01      2.67      0  01:46       0.000     0.000
  YS02001644              0.29   1796.08      0  01:50       0.981     0.000
  YS02001649              0.01    131.67      0  01:46       0.001     0.000
  YS02001748              0.01     32.03      0  01:46       0.000     0.000
  YS02001751              0.01    100.18      0  01:46       0.000     0.000
  YS02001754              0.01     26.03      0  01:46       0.000     0.000
  YS02001757              0.01     20.10      0  01:46       0.000     0.000
  YS02001759              0.01      7.05      0  01:46       0.000     0.000
  YS02001762              0.01     18.48      0  01:46       0.000     0.000
  YS02001765              0.01      7.57      0  01:46       0.000     0.000
  YS02001767              0.01      3.42      0  01:46       0.000     0.000
  YS02001770              0.08    204.57      0  01:50       0.032     0.000
  YS02001779              0.26    850.64      0  01:52       0.463     0.000
  YS02001882              0.01      6.08      0  01:44       0.000     0.000
  YS02001884              0.01      4.78      0  01:44       0.000     0.000
  YS02001890              0.23    604.83      0  01:50       0.250     0.000
  YS02001907              0.45   2719.81      0  01:50       2.116     0.000
  YS02001918              0.01    210.75      0  01:45       0.003     0.000
  YS02001920              0.01     28.93      0  01:45       0.000     0.000
  YS02001923              0.01    250.91      0  01:45       0.001     0.000
  YS02001926              0.01    584.97      0  01:45       0.004     0.000
  YS02001929              0.01     16.40      0  01:45       0.000     0.000
  YS02163601              0.01      5.79      0  01:46       0.000     0.000
  YS02164001              0.01      9.12      0  01:46       0.000     0.000
  
  
  **********************
  Storage Volume Summary
  **********************
  
  ------------------------------------------------------------------------------------------------
                         Average    Avg   Evap  Exfil     Maximum    Max    Time of Max    Maximum
                          Volume   Pcnt   Pcnt   Pcnt      Volume   Pcnt     Occurrence    Outflow
  Storage Unit           1000 m³   Full   Loss   Loss     1000 m³   Full    days hr:min        LPS
  ------------------------------------------------------------------------------------------------
  CC-storage               2.521   39.3    0.0    0.0       4.938   77.0       0  02:25    1783.53
  JK-storage               0.146   50.0    0.0    0.0       0.212   72.9       0  01:48    2300.00
  
  
  ***********************
  Outfall Loading Summary
  ***********************
  
  -----------------------------------------------------------
                         Flow       Avg       Max       Total
                         Freq      Flow      Flow      Volume
  Outfall Node           Pcnt       LPS       LPS    10^6 ltr
  -----------------------------------------------------------
  CC-1                  22.81    683.00    683.00       3.809
  CC-2                  20.70    683.00    683.00       3.427
  JK-1                  12.49   1000.00   1000.00       2.696
  JK-2                   3.36   1000.00   1000.00       0.683
  WSC                   99.95    290.01    554.94       6.368
  -----------------------------------------------------------
  System                31.86   3656.01   3920.94      16.983
  
  
  ********************
  Link Flow Summary
  ********************
  
  -----------------------------------------------------------------------------
                                 Maximum  Time of Max   Maximum    Max/    Max/
                                  |Flow|   Occurrence   |Veloc|    Full    Full
  Link                 Type          LPS  days hr:min     m/sec    Flow   Depth
  -----------------------------------------------------------------------------
  1                    CONDUIT    554.94     0  03:05      2.83    0.19    0.30
  WS02003060WS02003069 CONDUIT    552.85     0  03:05      1.64    0.22    0.34
  WS02003066WSF200     CONDUIT    536.33     0  03:04      2.85    0.09    0.22
  WS02003067WS02003066 CONDUIT    536.33     0  03:04      1.21    0.17    0.42
  WS02003069WS02003072 CONDUIT    553.13     0  03:03      1.37    0.27    0.39
  WS02003072WS02003073 CONDUIT    553.13     0  03:04      1.44    1.19    0.37
  WS02004401WS02004402 CONDUIT    536.87     0  03:01      0.98    0.64    0.86
  WS02004402WS02004403 CONDUIT    536.75     0  02:57      0.97    0.77    0.88
  WS02004403WS02004404 CONDUIT    536.56     0  03:02      0.92    0.39    0.93
  WS02004404WS02004405 CONDUIT    536.76     0  03:00      1.08    5.26    0.96
  WS02004405WS02004406 CONDUIT    536.94     0  03:00      0.99    1.06    0.96
  WS02004406WS02004407 CONDUIT    536.66     0  03:00      1.04    0.24    0.63
  WS02004407WS02004409 CONDUIT    536.56     0  03:00      1.56    0.19    0.48
  WS02004409WS02004410 CONDUIT    536.45     0  03:01      1.03    0.69    0.67
  WS02004410WS02004411 CONDUIT    536.39     0  03:03      0.95    0.73    0.69
  WS02004411WS02004412 CONDUIT    536.40     0  03:03      0.92    0.76    0.69
  WS02004412WS02004413 CONDUIT    536.35     0  03:04      0.82    0.36    0.78
  WS02004413WS02003067 CONDUIT    536.32     0  03:04      1.11    0.23    0.59
  WS02006109WS02006110 CONDUIT    562.77     0  02:06      1.12    1.08    1.00
  WS02006110WS02006113 CONDUIT    569.75     0  02:21      1.38    0.52    0.78
  WS02006111WS02006112 CONDUIT    542.60     0  02:45      1.81    0.26    0.67
  WS02006112WS02006115 CONDUIT    549.94     0  03:06      0.86    0.32    0.87
  WS02006113WS02006111 CONDUIT    560.67     0  03:01      2.47    0.67    0.46
  WS02006115WS02006116 CONDUIT    538.02     0  03:02      1.03    0.69    0.76
  WS02006116WS02004401 CONDUIT    537.00     0  03:02      0.98    0.74    0.84
  WS02006228WS02006109 CONDUIT    560.61     0  02:06      1.12    2.45    1.00
  WS02006229WS02006228 CONDUIT    559.22     0  02:06      1.14    1.85    1.00
  WS02006230WS02006229 CONDUIT    559.43     0  02:06      1.45   12.45    1.00
  WS02006231WS02006230 CONDUIT    581.78     0  03:15      1.58    8.82    1.00
  WS02006232WS02006231 CONDUIT    576.11     0  02:42      1.51    1.21    1.00
  WS02006234WS02006232 CONDUIT    575.27     0  02:42      1.49    1.16    1.00
  WS02006235WS02006234 CONDUIT    570.31     0  02:42      1.48    6.02    1.00
  WS02006238WS02006235 CONDUIT    431.23     0  03:16      1.45    0.96    1.00
  WS02006239WS02006238 CONDUIT    431.65     0  03:16      1.15    1.38    1.00
  WS02006240WS02006239 CONDUIT    431.41     0  03:16      1.24    1.36    1.00
  WS02006242WS02006240 CONDUIT    428.64     0  03:16      1.13    1.70    1.00
  WS02006243WS02006242 CONDUIT    428.10     0  03:16      1.43    0.91    1.00
  WS02006245WS02006243 CONDUIT    427.14     0  03:16      1.45    1.26    1.00
  WS02006247WS02006245 CONDUIT    427.27     0  03:15      1.43    3.39    1.00
  WS02006248WS02006247 CONDUIT    427.03     0  03:15      1.45    0.93    1.00
  WS02006249WS02006248 CONDUIT    426.54     0  03:15      1.37    2.34    1.00
  WS02006251WS02006249 CONDUIT    459.02     0  00:00      1.99    1.32    1.00
  WS02006252WS02006251 CONDUIT    411.24     0  02:06     25.34    1.51    1.00
  WS02006256WS02006235 CONDUIT    288.91     0  00:00      4.23    3.06    1.00
  WSF200WS02003060     CONDUIT    536.35     0  03:04      2.06    0.12    0.28
  YS02001580YS02001583 CONDUIT    121.89     0  01:42      0.76    0.47    1.00
  YS02001583YS02001586 CONDUIT    180.87     0  01:42      0.78    0.27    1.00
  YS02001586YS02001590 CONDUIT    318.38     0  02:07      1.26    0.56    1.00
  YS02001590YS02001593 CONDUIT    318.10     0  02:07      1.13    2.00    1.00
  YS02001593YS02001596 CONDUIT    318.07     0  02:00      1.74    0.50    1.00
  YS02001596YS02001600 CONDUIT    318.07     0  02:10      1.24    0.62    1.00
  YS02001600YS02001601 CONDUIT    318.05     0  02:07      1.12    0.55    1.00
  YS02001601YS02001602 CONDUIT    546.83     0  01:42      1.93    1.98    1.00
  YS02001602YS02001605 CONDUIT    547.48     0  01:42      1.94   11.59    1.00
  YS02001605YS02001607 CONDUIT    547.61     0  01:42      1.94    3.00    1.00
  YS02001607YS02001610 CONDUIT    540.29     0  01:42      0.69    0.51    1.00
  YS02001610YS02001613 CONDUIT    614.80     0  01:54      0.78    0.71    1.00
  YS02001613YS02001616 CONDUIT    614.80     0  01:54      0.78    0.53    1.00
  YS02001616YS02001619 CONDUIT    614.76     0  01:54      0.78    1.07    1.00
  YS02001619YS02001622 CONDUIT   1053.77     0  01:52      1.34    1.55    1.00
  YS02001622YS02001625 CONDUIT   1053.58     0  01:52      1.34    0.56    1.00
  YS02001625YS02001629 CONDUIT    957.42     0  01:42      1.22    0.46    1.00
  YS02001629YS02163301 CONDUIT    929.65     0  01:44      1.18    1.14    1.00
  YS02001633YS02163601 CONDUIT   1422.25     0  01:44      1.81    1.49    1.00
  YS02001641YS02001644 CONDUIT   1421.16     0  01:44      1.81    4.59    1.00
  YS02001644YS02001647 CONDUIT   1867.65     0  01:44      2.41    1.10    1.00
  YS02001647YS02001649 CONDUIT   1887.10     0  01:44      2.40    1.00    1.00
  YS02001649YS02001757 CONDUIT   2108.12     0  01:44      2.68    1.28    1.00
  YS02001652YS02001649 CONDUIT   1180.73     0  01:50      1.50    0.59    1.00
  YS02001655YS02001652 CONDUIT   1180.49     0  01:50      1.50    0.57    1.00
  YS02001658YS02001655 CONDUIT   1179.54     0  01:50      1.97    0.50    1.00
  YS02001661YS02001658 CONDUIT   1179.46     0  01:50      2.39    0.46    1.00
  YS02001664YS02001661 CONDUIT   1178.86     0  01:50      2.44    0.37    1.00
  YS02001745YS02001748 CONDUIT    757.84     0  01:50      2.29    0.29    1.00
  YS02001748YS02001751 CONDUIT    759.32     0  01:50      1.79    0.38    1.00
  YS02001751YS02001754 CONDUIT    759.02     0  01:50      1.53    0.37    1.00
  YS02001754YS02001757 CONDUIT    759.11     0  01:50      0.97    0.31    1.00
  YS02001757CaochengTiaoxuchi CONDUIT   3578.27     0  01:47      4.57    1.55    1.00
  YS02001759YS02001757 CONDUIT   1505.99     0  01:46      1.92    1.07    1.00
  YS02001762YS02001759 CONDUIT    857.81     0  01:46      1.09    0.99    1.00
  YS02001765YS02001762 CONDUIT    855.99     0  01:46      1.09    0.80    1.00
  YS02001767YS02001765 CONDUIT    858.18     0  01:46      1.09    1.08    1.00
  YS02001770YS02001767 CONDUIT    860.70     0  01:46      1.10    3.41    1.00
  YS02001774YS02001770 CONDUIT    850.82     0  01:52      1.08    0.54    1.00
  YS02001779YS02001774 CONDUIT    850.89     0  01:52      1.08    0.43    1.00
  YS02001783YS02001784 CONDUIT   1171.09     0  01:47      2.33    1.61    1.00
  YS02001784YS02001785 CONDUIT   1172.05     0  01:47      2.33    2.73    1.00
  YS02001786YS02001788 CONDUIT   1172.41     0  01:48      2.49    2.26    0.89
  YS02001788YS02001790 CONDUIT   1184.51     0  01:49      2.72    0.87    0.85
  YS02001790YS02001791 CONDUIT   1302.32     0  01:48      3.45    1.42    0.71
  YS02001791YS02001793 CONDUIT   1260.28     0  01:51      6.78    0.54    0.46
  YS02001793JiankangQianchi CONDUIT   1238.70     0  01:59      2.49    0.10    0.65
  YS02001882YS02001884 CONDUIT     51.78     0  01:43      0.15    0.06    1.00
  YS02001884YS02001887 CONDUIT     95.06     0  01:43      0.12    0.13    1.00
  YS02001887YS02001890 CONDUIT   1120.86     0  01:50      1.43    1.92    1.00
  YS02001890YS02001895 CONDUIT    519.86     0  01:44      0.66    0.24    1.00
  YS02001895YS02001898 CONDUIT    523.34     0  01:44      0.67    0.91    1.00
  YS02001898YS02001901 CONDUIT    527.72     0  01:44      0.67    0.34    1.00
  YS02001901YS02001904 CONDUIT    529.46     0  01:44      0.67    0.82    1.00
  YS02001904YS02001907 CONDUIT    531.22     0  01:44      0.68    0.19    1.00
  YS02001907YS02006553 CONDUIT    798.17     0  02:12      0.89    0.94    1.00
  YS02001910YS02001907 CONDUIT   1889.65     0  01:50      2.41    1.07    1.00
  YS02001915YS02001910 CONDUIT   1889.00     0  01:50      2.41    0.94    1.00
  YS02001918YS02001915 CONDUIT    618.19     0  01:52      0.79    0.34    1.00
  YS02001920YS02001918 CONDUIT    618.41     0  01:52      0.79    0.60    1.00
  YS02001923YS02001920 CONDUIT    615.26     0  01:52      0.78    0.28    1.00
  YS02001926YS02001923 CONDUIT    615.65     0  01:52      0.98    0.88    1.00
  YS02001929YS02001926 CONDUIT    614.20     0  01:52      1.17    0.29    1.00
  YS02006553YS02006556 CONDUIT    798.26     0  02:12      1.02    0.68    1.00
  YS02006556YS02006558 CONDUIT    798.97     0  02:12      1.02    0.63    1.00
  YS02006558YS02006561 CONDUIT   1171.05     0  01:47      4.14    2.59    1.00
  YS02006561YS02001783 CONDUIT   1170.82     0  01:47      2.33    0.61    1.00
  YS02163301YS02001633 CONDUIT    928.94     0  01:44      1.18    0.87    1.00
  YS02163601YS02164001 CONDUIT   1420.74     0  01:44      1.81    1.26    1.00
  YS02164001YS02001641 CONDUIT   1420.02     0  01:44      1.81    1.94    1.00
  CC-R1                PUMP       683.00     0  00:00              1.00
  CC-R2                PUMP       683.00     0  00:00              1.00
  CC-S1                PUMP       200.00     0  00:00              1.00
  CC-S2                PUMP       200.00     0  00:00              1.00
  JK-R1                PUMP      1000.00     0  00:00              1.00
  JK-R2                PUMP      1000.00     0  00:00              1.00
  JK-S                 PUMP       300.00     0  00:00              1.00
  
  
  ***************************
  Flow Classification Summary
  ***************************
  
  -------------------------------------------------------------------------------------
                      Adjusted    ---------- Fraction of Time in Flow Class ---------- 
                       /Actual         Up    Down  Sub   Sup   Up    Down  Norm  Inlet 
  Conduit               Length    Dry  Dry   Dry   Crit  Crit  Crit  Crit  Ltd   Ctrl  
  -------------------------------------------------------------------------------------
  1                       1.00   0.00  0.00  0.00  0.00  1.00  0.00  0.00  0.40  0.00
  WS02003060WS02003069    1.00   0.00  0.00  0.00  0.98  0.02  0.00  0.00  0.58  0.00
  WS02003066WSF200        1.00   0.13  0.00  0.00  0.00  0.87  0.00  0.00  0.78  0.00
  WS02003067WS02003066    1.00   0.10  0.02  0.00  0.88  0.00  0.00  0.00  0.00  0.00
  WS02003069WS02003072    1.00   0.00  0.00  0.00  0.99  0.01  0.00  0.00  0.63  0.00
  WS02003072WS02003073    1.00   0.00  0.00  0.00  0.00  0.00  0.00  1.00  0.00  0.00
  WS02004401WS02004402    1.00   0.02  0.00  0.00  0.98  0.00  0.00  0.00  0.00  0.00
  WS02004402WS02004403    1.00   0.02  0.00  0.00  0.97  0.00  0.00  0.00  0.00  0.00
  WS02004403WS02004404    1.00   0.00  0.03  0.00  0.97  0.00  0.00  0.00  0.00  0.00
  WS02004404WS02004405    1.00   0.00  0.00  0.00  1.00  0.00  0.00  0.00  0.00  0.00
  WS02004405WS02004406    1.00   0.00  0.00  0.00  1.00  0.00  0.00  0.00  0.00  0.00
  WS02004406WS02004407    1.00   0.00  0.05  0.00  0.95  0.00  0.00  0.00  0.00  0.00
  WS02004407WS02004409    1.00   0.05  0.00  0.00  0.94  0.01  0.00  0.00  0.94  0.00
  WS02004409WS02004410    1.00   0.05  0.00  0.00  0.95  0.00  0.00  0.00  0.03  0.00
  WS02004410WS02004411    1.00   0.05  0.00  0.00  0.95  0.00  0.00  0.00  0.01  0.00
  WS02004411WS02004412    1.00   0.05  0.00  0.00  0.95  0.00  0.00  0.00  0.00  0.00
  WS02004412WS02004413    1.00   0.05  0.00  0.00  0.94  0.00  0.00  0.00  0.01  0.00
  WS02004413WS02003067    1.00   0.06  0.04  0.00  0.00  0.00  0.90  0.00  0.00  0.00
  WS02006109WS02006110    1.00   0.00  0.01  0.00  0.98  0.00  0.01  0.00  0.00  0.00
  WS02006110WS02006113    1.00   0.01  0.01  0.00  0.98  0.00  0.00  0.00  0.00  0.00
  WS02006111WS02006112    1.00   0.02  0.00  0.00  0.98  0.00  0.00  0.00  0.98  0.00
  WS02006112WS02006115    1.00   0.02  0.00  0.00  0.97  0.00  0.00  0.00  0.00  0.00
  WS02006113WS02006111    1.00   0.02  0.00  0.00  0.00  0.98  0.00  0.00  0.15  0.00
  WS02006115WS02006116    1.00   0.02  0.00  0.00  0.97  0.00  0.00  0.01  0.00  0.00
  WS02006116WS02004401    1.00   0.02  0.00  0.00  0.98  0.00  0.00  0.00  0.00  0.00
  WS02006228WS02006109    1.00   0.00  0.00  0.00  1.00  0.00  0.00  0.00  0.00  0.00
  WS02006229WS02006228    1.00   0.00  0.00  0.00  0.99  0.00  0.00  0.01  0.00  0.00
  WS02006230WS02006229    1.00   0.00  0.00  0.00  0.99  0.00  0.00  0.01  0.00  0.00
  WS02006231WS02006230    1.00   0.00  0.00  0.00  0.38  0.00  0.61  0.00  0.00  0.00
  WS02006232WS02006231    1.00   0.00  0.00  0.00  0.99  0.00  0.01  0.00  0.00  0.00
  WS02006234WS02006232    1.00   0.00  0.00  0.00  1.00  0.00  0.00  0.00  0.07  0.00
  WS02006235WS02006234    1.00   0.00  0.00  0.00  0.84  0.00  0.16  0.00  0.00  0.00
  WS02006238WS02006235    1.00   0.00  0.00  0.00  1.00  0.00  0.00  0.00  0.00  0.00
  WS02006239WS02006238    1.00   0.00  0.00  0.00  1.00  0.00  0.00  0.00  0.15  0.00
  WS02006240WS02006239    1.00   0.00  0.00  0.00  0.65  0.00  0.00  0.34  0.01  0.00
  WS02006242WS02006240    1.00   0.00  0.00  0.00  0.99  0.00  0.01  0.00  0.00  0.00
  WS02006243WS02006242    1.00   0.00  0.00  0.00  0.99  0.00  0.00  0.01  0.46  0.00
  WS02006245WS02006243    1.00   0.00  0.00  0.00  0.84  0.00  0.00  0.16  0.00  0.00
  WS02006247WS02006245    1.00   0.00  0.00  0.00  0.96  0.00  0.00  0.04  0.00  0.00
  WS02006248WS02006247    1.00   0.00  0.00  0.00  0.98  0.00  0.00  0.02  0.38  0.00
  WS02006249WS02006248    1.00   0.00  0.00  0.00  0.59  0.00  0.41  0.00  0.00  0.00
  WS02006251WS02006249    1.00   0.00  0.00  0.00  0.99  0.01  0.00  0.00  0.45  0.00
  WS02006252WS02006251    1.00   0.00  0.47  0.00  0.10  0.00  0.43  0.00  0.00  0.00
  WS02006256WS02006235    1.00   0.00  0.00  0.00  1.00  0.00  0.00  0.00  0.00  0.00
  WSF200WS02003060        1.00   0.00  0.13  0.00  0.26  0.62  0.00  0.00  0.42  0.00
  YS02001580YS02001583    1.00   0.21  0.57  0.00  0.21  0.00  0.00  0.00  0.67  0.00
  YS02001583YS02001586    1.00   0.42  0.31  0.00  0.27  0.00  0.00  0.00  0.67  0.00
  YS02001586YS02001590    1.00   0.13  0.00  0.00  0.43  0.04  0.00  0.40  0.34  0.00
  YS02001590YS02001593    1.00   0.13  0.01  0.00  0.14  0.00  0.73  0.00  0.00  0.00
  YS02001593YS02001596    1.00   0.13  0.00  0.00  0.16  0.01  0.00  0.70  0.02  0.00
  YS02001596YS02001600    1.00   0.14  0.00  0.00  0.21  0.01  0.00  0.64  0.04  0.00
  YS02001600YS02001601    1.00   0.13  0.01  0.00  0.86  0.00  0.00  0.00  0.60  0.00
  YS02001601YS02001602    1.00   0.13  0.01  0.00  0.87  0.00  0.00  0.00  0.00  0.00
  YS02001602YS02001605    1.00   0.13  0.00  0.00  0.86  0.00  0.00  0.00  0.00  0.00
  YS02001605YS02001607    1.00   0.14  0.00  0.00  0.86  0.00  0.00  0.00  0.00  0.00
  YS02001607YS02001610    1.00   0.13  0.01  0.00  0.86  0.00  0.00  0.00  0.01  0.00
  YS02001610YS02001613    1.00   0.13  0.00  0.00  0.87  0.00  0.00  0.00  0.00  0.00
  YS02001613YS02001616    1.00   0.13  0.00  0.00  0.87  0.00  0.00  0.00  0.00  0.00
  YS02001616YS02001619    1.00   0.13  0.00  0.00  0.87  0.00  0.00  0.00  0.00  0.00
  YS02001619YS02001622    1.00   0.13  0.00  0.00  0.87  0.00  0.00  0.00  0.29  0.00
  YS02001622YS02001625    1.00   0.13  0.00  0.00  0.87  0.00  0.00  0.00  0.04  0.00
  YS02001625YS02001629    1.00   0.13  0.04  0.00  0.18  0.00  0.65  0.00  0.00  0.00
  YS02001629YS02163301    1.00   0.15  0.01  0.00  0.84  0.00  0.00  0.00  0.00  0.00
  YS02001633YS02163601    1.00   0.00  0.01  0.00  0.99  0.00  0.00  0.00  0.15  0.00
  YS02001641YS02001644    1.00   0.00  0.01  0.00  0.99  0.00  0.00  0.00  0.00  0.00
  YS02001644YS02001647    1.00   0.00  0.17  0.00  0.83  0.00  0.00  0.00  0.00  0.00
  YS02001647YS02001649    1.00   0.00  0.17  0.00  0.57  0.26  0.00  0.00  0.55  0.00
  YS02001649YS02001757    1.00   0.00  0.00  0.00  0.85  0.15  0.00  0.00  0.40  0.00
  YS02001652YS02001649    1.00   0.00  0.00  0.00  0.97  0.03  0.00  0.00  0.72  0.00
  YS02001655YS02001652    1.00   0.00  0.00  0.00  0.21  0.01  0.00  0.78  0.04  0.00
  YS02001658YS02001655    1.00   0.00  0.14  0.00  0.69  0.17  0.00  0.00  0.65  0.00
  YS02001661YS02001658    1.00   0.14  0.00  0.00  0.53  0.33  0.00  0.00  0.68  0.00
  YS02001664YS02001661    1.00   0.13  0.00  0.00  0.79  0.09  0.00  0.00  0.84  0.00
  YS02001745YS02001748    1.00   0.00  0.00  0.00  0.13  0.01  0.00  0.86  0.05  0.00
  YS02001748YS02001751    1.00   0.00  0.00  0.00  0.86  0.14  0.00  0.00  0.76  0.00
  YS02001751YS02001754    1.00   0.00  0.00  0.00  0.18  0.00  0.00  0.81  0.02  0.00
  YS02001754YS02001757    1.00   0.00  0.00  0.00  1.00  0.00  0.00  0.00  0.78  0.00
  YS02001757CaochengTiaoxuchi    1.00   0.00  0.00  0.00  0.98  0.02  0.00  0.00  0.64  0.00
  YS02001759YS02001757    1.00   0.00  0.00  0.00  1.00  0.00  0.00  0.00  0.54  0.00
  YS02001762YS02001759    1.00   0.00  0.00  0.00  1.00  0.00  0.00  0.00  0.03  0.00
  YS02001765YS02001762    1.00   0.00  0.00  0.00  1.00  0.00  0.00  0.00  0.65  0.00
  YS02001767YS02001765    1.00   0.00  0.00  0.00  1.00  0.00  0.00  0.00  0.01  0.00
  YS02001770YS02001767    1.00   0.00  0.00  0.00  1.00  0.00  0.00  0.00  0.00  0.00
  YS02001774YS02001770    1.00   0.00  0.13  0.00  0.70  0.00  0.17  0.00  0.03  0.00
  YS02001779YS02001774    1.00   0.00  0.00  0.00  1.00  0.00  0.00  0.00  0.77  0.00
  YS02001783YS02001784    1.00   0.00  0.17  0.00  0.83  0.00  0.00  0.00  0.55  0.00
  YS02001784YS02001785    1.00   0.00  0.00  0.00  1.00  0.00  0.00  0.00  0.16  0.00
  YS02001786YS02001788    1.00   0.00  0.00  0.00  0.80  0.20  0.00  0.00  0.00  0.00
  YS02001788YS02001790    1.00   0.00  0.00  0.00  0.21  0.79  0.00  0.00  0.80  0.00
  YS02001790YS02001791    1.00   0.00  0.00  0.00  0.01  0.99  0.00  0.00  0.16  0.00
  YS02001791YS02001793    1.00   0.00  0.00  0.00  0.00  1.00  0.00  0.00  0.01  0.00
  YS02001793JiankangQianchi    1.00   0.00  0.00  0.00  0.97  0.03  0.00  0.00  0.96  0.00
  YS02001882YS02001884    1.00   0.15  0.01  0.00  0.84  0.00  0.00  0.00  0.00  0.00
  YS02001884YS02001887    1.00   0.06  0.05  0.00  0.89  0.00  0.00  0.00  0.00  0.00
  YS02001887YS02001890    1.00   0.00  0.00  0.00  0.97  0.00  0.03  0.00  0.00  0.00
  YS02001890YS02001895    1.00   0.00  0.16  0.00  0.84  0.00  0.00  0.00  0.00  0.00
  YS02001895YS02001898    1.00   0.16  0.00  0.00  0.82  0.00  0.02  0.00  0.00  0.00
  YS02001898YS02001901    1.00   0.16  0.00  0.00  0.84  0.00  0.00  0.00  0.01  0.00
  YS02001901YS02001904    1.00   0.16  0.00  0.00  0.84  0.00  0.00  0.00  0.00  0.00
  YS02001904YS02001907    1.00   0.00  0.16  0.00  0.84  0.00  0.00  0.00  0.00  0.00
  YS02001907YS02006553    1.00   0.00  0.02  0.00  0.98  0.00  0.00  0.00  0.00  0.00
  YS02001910YS02001907    1.00   0.00  0.00  0.00  0.97  0.00  0.00  0.03  0.12  0.00
  YS02001915YS02001910    1.00   0.00  0.00  0.00  0.97  0.03  0.00  0.00  0.15  0.00
  YS02001918YS02001915    1.00   0.00  0.01  0.00  0.98  0.02  0.00  0.00  0.74  0.00
  YS02001920YS02001918    1.00   0.00  0.01  0.00  0.99  0.00  0.00  0.00  0.00  0.00
  YS02001923YS02001920    1.00   0.00  0.00  0.00  1.00  0.00  0.00  0.00  0.91  0.00
  YS02001926YS02001923    1.00   0.00  0.07  0.00  0.07  0.00  0.85  0.00  0.00  0.00
  YS02001929YS02001926    1.00   0.00  0.13  0.00  0.87  0.00  0.00  0.00  0.81  0.00
  YS02006553YS02006556    1.00   0.01  0.00  0.00  0.99  0.00  0.00  0.00  0.03  0.00
  YS02006556YS02006558    1.00   0.00  0.00  0.00  1.00  0.00  0.00  0.00  0.00  0.00
  YS02006558YS02006561    1.00   0.17  0.00  0.00  0.07  0.76  0.00  0.00  0.18  0.00
  YS02006561YS02001783    1.00   0.17  0.00  0.00  0.10  0.72  0.00  0.00  0.68  0.00
  YS02163301YS02001633    1.00   0.00  0.15  0.00  0.85  0.00  0.00  0.00  0.00  0.00
  YS02163601YS02164001    1.00   0.00  0.08  0.00  0.92  0.00  0.00  0.00  0.00  0.00
  YS02164001YS02001641    1.00   0.01  0.07  0.00  0.92  0.00  0.00  0.00  0.05  0.00
  
  
  *************************
  Conduit Surcharge Summary
  *************************
  
  ----------------------------------------------------------------------------
                                                           Hours        Hours 
                         --------- Hours Full --------   Above Full   Capacity
  Conduit                Both Ends  Upstream  Dnstream   Normal Flow   Limited
  ----------------------------------------------------------------------------
  WS02003072WS02003073        0.01      0.01      0.01      1.07         0.01
  WS02004404WS02004405        0.01      0.01      0.01      3.86         0.01
  WS02004405WS02004406        0.01      0.01      0.01      0.52         0.01
  WS02006109WS02006110        0.66      0.66      2.77      0.74         0.01
  WS02006110WS02006113        0.01      0.01      2.65      0.01         0.01
  WS02006111WS02006112        0.01      0.01      3.40      0.01         0.01
  WS02006112WS02006115        0.01      0.01      0.62      0.01         0.01
  WS02006228WS02006109        2.55      2.77      2.55      3.65         2.55
  WS02006229WS02006228        2.53      2.57      2.53      3.24         2.52
  WS02006230WS02006229        2.96      3.17      2.96      4.57         2.96
  WS02006231WS02006230        0.67      0.67      0.79      4.16         0.01
  WS02006232WS02006231        0.76      0.76      2.77      0.82         0.01
  WS02006234WS02006232        2.46      2.46      2.77      0.81         0.80
  WS02006235WS02006234        1.03      1.03      2.53      4.01         0.02
  WS02006238WS02006235        2.58      2.58      2.80      0.01         0.01
  WS02006239WS02006238        2.64      2.75      2.65      3.11         2.49
  WS02006240WS02006239        2.52      2.58      2.54      3.10         2.37
  WS02006242WS02006240        2.55      2.56      2.95      3.36         0.01
  WS02006243WS02006242        2.62      2.62      2.82      0.01         0.03
  WS02006245WS02006243        2.59      2.62      2.59      2.43         1.92
  WS02006247WS02006245        2.59      2.67      2.59      3.82         2.58
  WS02006248WS02006247        2.59      2.59      2.64      0.01         0.04
  WS02006249WS02006248        2.57      2.57      2.62      3.80         0.01
  WS02006251WS02006249        2.62      2.64      2.62      3.20         2.55
  WS02006252WS02006251        3.27      3.27      3.29      3.28         0.01
  WS02006256WS02006235        4.01      4.05      6.99      0.97         0.01
  YS02001580YS02001583        0.76      0.76      0.82      0.01         0.01
  YS02001583YS02001586        0.77      0.77      0.91      0.01         0.01
  YS02001586YS02001590        0.92      0.92      0.99      0.01         0.01
  YS02001590YS02001593        0.99      0.99      1.01      1.04         0.01
  YS02001593YS02001596        1.00      1.00      1.10      0.01         0.01
  YS02001596YS02001600        1.15      1.15      1.26      0.01         0.01
  YS02001600YS02001601        1.32      1.32      1.57      0.01         0.01
  YS02001601YS02001602        1.49      1.49      1.60      1.24         0.01
  YS02001602YS02001605        1.44      1.44      1.49      2.30         0.01
  YS02001605YS02001607        1.40      1.44      1.40      1.54         1.40
  YS02001607YS02001610        0.99      0.99      1.01      0.01         0.01
  YS02001610YS02001613        0.98      0.98      1.01      0.01         0.01
  YS02001613YS02001616        0.94      0.94      0.98      0.01         0.01
  YS02001616YS02001619        0.92      0.92      0.94      0.08         0.11
  YS02001619YS02001622        0.92      0.92      0.92      0.96         0.88
  YS02001622YS02001625        0.92      0.92      1.11      0.01         0.01
  YS02001625YS02001629        0.88      0.88      1.11      0.01         0.01
  YS02001629YS02163301        1.11      1.11      1.12      0.03         0.11
  YS02001633YS02163601        1.14      1.14      1.18      0.30         0.29
  YS02001641YS02001644        1.08      1.10      1.08      1.62         1.07
  YS02001644YS02001647        0.87      0.87      1.08      0.04         0.01
  YS02001647YS02001649        0.87      0.87      1.01      0.01         0.01
  YS02001649YS02001757        1.01      1.01      1.09      0.06         0.03
  YS02001652YS02001649        0.83      0.83      1.01      0.01         0.01
  YS02001655YS02001652        0.60      0.60      0.80      0.01         0.01
  YS02001658YS02001655        0.32      0.32      0.60      0.01         0.01
  YS02001661YS02001658        0.13      0.13      0.32      0.01         0.01
  YS02001664YS02001661        0.01      0.01      0.17      0.01         0.01
  YS02001745YS02001748        0.01      0.01      0.26      0.01         0.01
  YS02001748YS02001751        0.30      0.30      0.44      0.01         0.01
  YS02001751YS02001754        0.44      0.44      0.70      0.01         0.01
  YS02001754YS02001757        0.75      0.75      1.09      0.01         0.01
  YS02001757CaochengTiaoxuchi        1.04      1.09      2.12      0.44         0.35
  YS02001759YS02001757        0.99      0.99      1.09      0.10         0.09
  YS02001762YS02001759        0.96      0.96      0.99      0.01         0.02
  YS02001765YS02001762        0.91      0.91      0.96      0.01         0.01
  YS02001767YS02001765        0.86      0.86      0.91      0.01         0.02
  YS02001770YS02001767        0.86      0.86      0.86      0.64         0.56
  YS02001774YS02001770        0.84      0.84      0.93      0.01         0.01
  YS02001779YS02001774        0.69      0.69      0.93      0.01         0.01
  YS02001783YS02001784        0.62      0.65      0.62      0.79         0.62
  YS02001784YS02001785        0.52      0.62      0.52      1.03         0.52
  YS02001786YS02001788        0.01      0.52      0.01      0.90         0.01
  YS02001790YS02001791        0.01      0.01      0.01      0.61         0.01
  YS02001793JiankangQianchi        0.01      0.01      7.70      0.01         0.01
  YS02001882YS02001884        0.59      0.59      0.60      0.01         0.01
  YS02001884YS02001887        0.63      0.63      0.64      0.01         0.01
  YS02001887YS02001890        0.65      0.65      0.67      0.19         0.01
  YS02001890YS02001895        0.58      0.58      0.68      0.01         0.01
  YS02001895YS02001898        0.58      0.58      0.58      0.01         0.01
  YS02001898YS02001901        0.58      0.58      0.63      0.01         0.01
  YS02001901YS02001904        0.62      0.62      0.63      0.01         0.01
  YS02001904YS02001907        0.62      0.62      0.87      0.01         0.01
  YS02001907YS02006553        1.05      1.05      1.12      0.01         0.01
  YS02001910YS02001907        0.68      0.68      0.85      0.07         0.07
  YS02001915YS02001910        0.59      0.59      0.68      0.01         0.01
  YS02001918YS02001915        0.50      0.50      0.59      0.01         0.01
  YS02001920YS02001918        0.50      0.50      0.52      0.01         0.01
  YS02001923YS02001920        0.46      0.46      0.52      0.01         0.01
  YS02001926YS02001923        0.20      0.20      0.22      0.01         0.01
  YS02001929YS02001926        0.10      0.10      0.22      0.01         0.01
  YS02006553YS02006556        0.77      0.77      0.87      0.01         0.01
  YS02006556YS02006558        0.81      0.81      0.89      0.01         0.01
  YS02006558YS02006561        0.54      0.76      0.54      0.98         0.54
  YS02006561YS02001783        0.47      0.47      0.65      0.01         0.01
  YS02163301YS02001633        1.12      1.12      1.16      0.01         0.01
  YS02163601YS02164001        1.10      1.10      1.18      0.05         0.01
  YS02164001YS02001641        1.10      1.10      1.10      0.74         0.70
  
  
  ***************
  Pumping Summary
  ***************
  
  ---------------------------------------------------------------------------------------------------------
                                                  Min       Avg       Max     Total     Power    % Time Off
                        Percent   Number of      Flow      Flow      Flow    Volume     Usage    Pump Curve
  Pump                 Utilized   Start-Ups       LPS       LPS       LPS  10^6 ltr     Kw-hr    Low   High
  ---------------------------------------------------------------------------------------------------------
  CC-R1                   19.36           2      0.00    683.00    683.00     3.808     72.40    0.0    9.7
  CC-R2                   17.43           3      0.00    683.00    683.00     3.428     65.40    0.0   10.9
  CC-S1                   46.59          16      0.00    200.00    200.00     2.684     15.95    0.0    0.0
  CC-S2                   43.52          18      0.00    200.00    200.00     2.507     14.95    0.0    0.0
  JK-R1                    9.36          13      0.00   1000.00   1000.00     2.695     27.33    0.0    0.0
  JK-R2                    2.37           9      0.00   1000.00   1000.00     0.682      5.65    0.0    0.0
  JK-S                    12.03          12      0.00    300.00    300.00     1.039     16.77    0.0    0.0
  

  Analysis begun on:  Wed Jan 15 10:42:50 2025
  Analysis ended on:  Wed Jan 15 10:42:51 2025
  Total elapsed time: 00:00:01