
  EPA STORM WATER MANAGEMENT MODEL - VERSION 5.2 (Build 5.2.4)
  PYSWMM TOOLKIT API - VERSION v1.0 (2023-11-27)
  ------------------------------------------------------------

  WARNING 04: minimum elevation drop used for Conduit WS02004404WS02004405
  WARNING 03: negative offset ignored for Link YS02001904YS02001907
  
  ****************
  Analysis Options
  ****************
  Flow Units ............... LPS
  Process Models:
    Rainfall/Runoff ........ YES
    RDII ................... NO
    Snowmelt ............... NO
    Groundwater ............ NO
    Flow Routing ........... YES
    Ponding Allowed ........ NO
    Water Quality .......... NO
  Infiltration Method ...... HORTON
  Flow Routing Method ...... DYNWAVE
  Surcharge Method ......... EXTRAN
  Starting Date ............ 08/28/2015 08:00:00
  Ending Date .............. 08/28/2015 16:00:00
  Antecedent Dry Days ...... 8.0
  Report Time Step ......... 00:01:00
  Wet Time Step ............ 00:01:00
  Dry Time Step ............ 00:01:00
  Routing Time Step ........ 30.00 sec
  Variable Time Step ....... YES
  Maximum Trials ........... 8
  Number of Threads ........ 4
  Head Tolerance ........... 0.001500 m
  
  
  **************************        Volume         Depth
  Runoff Quantity Continuity     hectare-m            mm
  **************************     ---------       -------
  Total Precipitation ......         3.574       107.739
  Evaporation Loss .........         0.000         0.000
  Infiltration Loss ........         0.106         3.182
  Surface Runoff ...........         3.436       103.582
  Final Storage ............         0.033         0.997
  Continuity Error (%) .....        -0.019
  
  
  **************************        Volume        Volume
  Flow Routing Continuity        hectare-m      10^6 ltr
  **************************     ---------     ---------
  Dry Weather Inflow .......         0.025         0.251
  Wet Weather Inflow .......         3.436        34.358
  Groundwater Inflow .......         0.000         0.000
  RDII Inflow ..............         0.000         0.000
  External Inflow ..........         0.083         0.834
  External Outflow .........         2.015        20.154
  Flooding Loss ............         1.582        15.824
  Evaporation Loss .........         0.000         0.000
  Exfiltration Loss ........         0.000         0.000
  Initial Stored Volume ....         0.243         2.431
  Final Stored Volume ......         0.195         1.949
  Continuity Error (%) .....        -0.141
  
  
  *************************
  Highest Continuity Errors
  *************************
  Node YS02001884 (5.04%)
  Node YS02001583 (-4.29%)
  
  
  ***************************
  Time-Step Critical Elements
  ***************************
  Link WS02006252WS02006251 (33.54%)
  Link WS02006238WS02006235 (19.62%)
  Link WS02004404WS02004405 (11.24%)
  Link YS02001791YS02001793 (10.03%)
  Link WS02006235WS02006234 (8.98%)
  
  
  ********************************
  Highest Flow Instability Indexes
  ********************************
  Link WS02006113WS02006111 (57)
  Link WS02006111WS02006112 (27)
  Link WS02004404WS02004405 (24)
  Link WS02006252WS02006251 (21)
  Link WS02006238WS02006235 (21)
  
  
  *********************************
  Most Frequent Nonconverging Nodes
  *********************************
  Node CC-1 (15.08%)
  Node CC-2 (15.08%)
  Node JK-1 (15.08%)
  Node JK-2 (15.08%)
  Node WSC (15.08%)
  
  
  *************************
  Routing Time Step Summary
  *************************
  Minimum Time Step           :     0.00 sec
  Average Time Step           :     2.03 sec
  Maximum Time Step           :     7.04 sec
  % of Time in Steady State   :     0.00
  Average Iterations per Step :     3.39
  % of Steps Not Converging   :    15.08
  Time Step Frequencies       :
     30.000 - 13.228 sec      :     0.00 %
     13.228 -  5.833 sec      :     7.49 %
      5.833 -  2.572 sec      :    18.52 %
      2.572 -  1.134 sec      :    31.94 %
      1.134 -  0.500 sec      :    42.05 %
  
  
  ***************************
  Subcatchment Runoff Summary
  ***************************
  
  ------------------------------------------------------------------------------------------------------------------------------
                            Total      Total      Total      Total     Imperv       Perv      Total       Total     Peak  Runoff
                           Precip      Runon       Evap      Infil     Runoff     Runoff     Runoff      Runoff   Runoff   Coeff
  Subcatchment                 mm         mm         mm         mm         mm         mm         mm    10^6 ltr      LPS
  ------------------------------------------------------------------------------------------------------------------------------
  sub60                    107.74       0.00       0.00       1.90      93.62      11.03     104.65        1.38   865.91   0.971
  sub61                    107.74       0.00       0.00       2.76      88.30      15.56     103.86        1.91  1205.61   0.964
  sub62                    107.74       0.00       0.00       1.27      97.84       7.36     105.20        2.88  1720.14   0.976
  sub63                    107.74       0.00       0.00       5.09      75.53      26.16     101.69        2.31  1390.90   0.944
  sub64                    107.74       0.00       0.00       2.57      90.38      13.59     103.97        2.50  1428.88   0.965
  sub65                    107.74       0.00       0.00       2.23      92.48      11.78     104.26        2.87  1601.77   0.968
  sub66                    107.74       0.00       0.00       6.32      75.42      24.93     100.35        4.68  2204.78   0.931
  sub67                    107.74       0.00       0.00       1.21      97.88       7.41     105.29        1.96  1294.17   0.977
  sub68                    107.74       0.00       0.00       2.28      91.48      12.80     104.28        2.87  1756.94   0.968
  sub69                    107.74       0.00       0.00       2.07      91.47      14.10     105.57        3.91  2128.94   0.980
  sub70                    107.74       0.00       0.00       6.91      70.94      29.72     100.67        2.91  1240.64   0.934
  sub71                    107.74       0.00       0.00       1.30      97.80       7.32     105.12        2.75  1541.45   0.976
  sub72                    107.74       0.00       0.00       1.16      98.80       6.39     105.18        1.45   757.72   0.976
  
  
  ******************
  Node Depth Summary
  ******************
  
  ---------------------------------------------------------------------------------
                                 Average  Maximum  Maximum  Time of Max    Reported
                                   Depth    Depth      HGL   Occurrence   Max Depth
  Node                 Type       Meters   Meters   Meters  days hr:min      Meters
  ---------------------------------------------------------------------------------
  WS02003060           JUNCTION     0.26     0.38     5.31     0  02:18        0.38
  WS02003066           JUNCTION     0.21     0.30     5.85     0  02:17        0.30
  WS02003067           JUNCTION     0.53     0.70     6.02     0  02:17        0.70
  WS02003069           JUNCTION     0.29     0.43     5.01     0  02:18        0.43
  WS02003072           JUNCTION     0.35     0.50     4.87     0  02:19        0.50
  WS02003073           JUNCTION     0.20     0.30     4.36     0  02:20        0.30
  WS02004401           JUNCTION     0.64     0.87     6.87     0  02:15        0.87
  WS02004402           JUNCTION     0.67     0.90     6.86     0  02:15        0.90
  WS02004403           JUNCTION     0.69     0.92     6.85     0  02:15        0.92
  WS02004404           JUNCTION     0.77     1.02     6.87     0  02:15        1.00
  WS02004405           JUNCTION     0.75     0.97     6.82     0  02:15        0.96
  WS02004406           JUNCTION     0.76     0.96     6.79     0  02:15        0.96
  WS02004407           JUNCTION     0.20     0.30     6.61     0  02:15        0.29
  WS02004409           JUNCTION     0.44     0.67     6.44     0  02:17        0.67
  WS02004410           JUNCTION     0.46     0.68     6.40     0  02:17        0.68
  WS02004411           JUNCTION     0.48     0.69     6.37     0  02:17        0.69
  WS02004412           JUNCTION     0.50     0.70     6.34     0  02:17        0.70
  WS02004413           JUNCTION     0.66     0.86     6.33     0  02:18        0.86
  WS02006109           JUNCTION     0.69     1.14     7.76     0  03:15        1.00
  WS02006110           JUNCTION     0.69     1.14     7.72     0  02:50        0.96
  WS02006111           JUNCTION     0.19     0.29     6.99     0  03:12        0.29
  WS02006112           JUNCTION     0.80     1.08     6.96     0  03:13        1.06
  WS02006113           JUNCTION     0.30     0.46     7.35     0  03:08        0.46
  WS02006115           JUNCTION     0.52     0.77     6.91     0  02:15        0.77
  WS02006116           JUNCTION     0.61     0.85     6.89     0  02:15        0.85
  WS02006228           JUNCTION     0.69     1.14     7.79     0  03:15        1.03
  WS02006229           JUNCTION     0.66     1.17     7.86     0  03:15        1.07
  WS02006230           JUNCTION     0.67     1.34     8.08     0  03:15        1.23
  WS02006231           JUNCTION     0.46     1.05     8.18     0  03:15        0.94
  WS02006232           JUNCTION     0.60     1.20     8.24     0  03:15        1.13
  WS02006234           JUNCTION     0.53     1.23     8.38     0  03:15        1.17
  WS02006235           JUNCTION     0.57     1.43     8.59     0  03:15        1.32
  WS02006238           JUNCTION     0.60     1.47     8.62     0  03:15        1.34
  WS02006239           JUNCTION     0.58     2.03     9.24     0  02:53        2.03
  WS02006240           JUNCTION     0.55     1.66     8.95     0  02:53        1.66
  WS02006242           JUNCTION     0.62     1.55     8.82     0  02:53        1.55
  WS02006243           JUNCTION     0.53     1.48     8.90     0  02:53        1.48
  WS02006245           JUNCTION     0.53     1.30     8.79     0  02:50        1.30
  WS02006247           JUNCTION     0.55     1.28     8.78     0  02:50        1.28
  WS02006248           JUNCTION     0.51     1.10     8.69     0  01:50        1.10
  WS02006249           JUNCTION     0.54     1.09     8.69     0  01:49        1.09
  WS02006251           JUNCTION     0.54     1.39     9.06     0  01:49        1.28
  WS02006252           JUNCTION     0.39     1.50     9.74     0  00:00        1.50
  WS02006256           JUNCTION     0.97     2.35     9.28     0  00:00        2.35
  WSF200               JUNCTION     0.19     0.29     5.52     0  02:17        0.29
  YS02001580           JUNCTION     0.13     1.05     9.59     0  01:44        0.77
  YS02001583           JUNCTION     0.17     1.14     9.64     0  01:44        0.82
  YS02001586           JUNCTION     0.26     1.13     9.30     0  01:44        1.13
  YS02001590           JUNCTION     0.37     1.40     9.26     0  02:53        1.40
  YS02001593           JUNCTION     0.30     1.31     9.18     0  01:44        1.29
  YS02001596           JUNCTION     0.40     1.80     9.22     0  02:30        1.80
  YS02001600           JUNCTION     0.48     1.87     9.00     0  01:44        1.87
  YS02001601           JUNCTION     0.67     2.06     8.90     0  01:43        2.06
  YS02001602           JUNCTION     0.58     1.87     8.77     0  01:44        1.87
  YS02001605           JUNCTION     0.54     1.78     8.68     0  01:59        1.78
  YS02001607           JUNCTION     0.52     1.68     8.53     0  02:30        1.68
  YS02001610           JUNCTION     0.57     1.68     8.48     0  01:48        1.68
  YS02001613           JUNCTION     0.53     1.67     8.52     0  02:07        1.67
  YS02001616           JUNCTION     0.46     1.61     8.52     0  01:49        1.61
  YS02001619           JUNCTION     0.43     1.61     8.54     0  01:49        1.61
  YS02001622           JUNCTION     0.42     1.61     8.51     0  01:59        1.61
  YS02001625           JUNCTION     0.69     1.78     8.38     0  01:48        1.78
  YS02001629           JUNCTION     0.56     1.85     8.40     0  01:50        1.85
  YS02001633           JUNCTION     0.64     2.08     8.53     0  01:57        2.08
  YS02001641           JUNCTION     0.62     2.10     8.54     0  02:53        2.10
  YS02001644           JUNCTION     0.62     1.92     8.35     0  01:51        1.92
  YS02001647           JUNCTION     0.41     1.82     8.43     0  02:39        1.82
  YS02001649           JUNCTION     0.46     2.05     8.44     0  01:59        2.05
  YS02001652           JUNCTION     0.35     1.93     8.53     0  01:59        1.93
  YS02001655           JUNCTION     0.28     1.85     8.70     0  01:50        1.78
  YS02001658           JUNCTION     0.21     1.60     8.74     0  02:01        1.59
  YS02001661           JUNCTION     0.21     1.44     8.84     0  02:01        1.43
  YS02001664           JUNCTION     0.08     1.02     8.94     0  02:01        0.98
  YS02001745           JUNCTION     0.12     1.05     8.57     0  02:01        1.04
  YS02001748           JUNCTION     0.20     1.45     8.53     0  02:01        1.44
  YS02001751           JUNCTION     0.25     1.60     8.48     0  02:01        1.60
  YS02001754           JUNCTION     0.32     1.82     8.43     0  02:00        1.82
  YS02001757           JUNCTION     0.49     2.21     8.47     0  02:53        2.21
  YS02001759           JUNCTION     0.43     2.21     8.57     0  01:59        2.21
  YS02001762           JUNCTION     0.42     2.15     8.55     0  02:39        2.15
  YS02001765           JUNCTION     0.40     2.10     8.55     0  01:59        2.10
  YS02001767           JUNCTION     0.39     2.03     8.52     0  01:59        2.03
  YS02001770           JUNCTION     0.40     1.95     8.44     0  01:52        1.95
  YS02001774           JUNCTION     0.47     2.05     8.47     0  01:53        2.05
  YS02001779           JUNCTION     0.30     1.68     8.37     0  01:49        1.68
  YS02001783           JUNCTION     0.29     1.34     7.48     0  01:59        1.25
  YS02001784           JUNCTION     0.30     1.18     7.25     0  01:59        1.14
  YS02001786           JUNCTION     0.25     0.94     6.97     0  01:59        0.89
  YS02001788           JUNCTION     0.18     0.63     6.61     0  02:00        0.63
  YS02001790           JUNCTION     0.21     0.74     6.38     0  02:01        0.73
  YS02001791           JUNCTION     0.13     0.45     5.92     0  02:01        0.44
  YS02001793           JUNCTION     0.07     0.31     5.14     0  02:05        0.27
  YS02001882           JUNCTION     0.36     1.83     8.55     0  01:59        1.83
  YS02001884           JUNCTION     0.46     1.90     8.52     0  01:59        1.90
  YS02001887           JUNCTION     0.53     2.00     8.54     0  01:59        2.00
  YS02001890           JUNCTION     0.56     1.81     8.32     0  01:49        1.81
  YS02001895           JUNCTION     0.33     1.57     8.32     0  01:50        1.57
  YS02001898           JUNCTION     0.34     1.63     8.36     0  01:59        1.63
  YS02001901           JUNCTION     0.46     1.68     8.29     0  01:49        1.67
  YS02001904           JUNCTION     0.43     1.66     8.29     0  01:49        1.64
  YS02001907           JUNCTION     0.76     1.96     8.25     0  01:49        1.96
  YS02001910           JUNCTION     0.56     2.01     8.52     0  02:05        2.00
  YS02001915           JUNCTION     0.37     2.00     8.72     0  01:59        2.00
  YS02001918           JUNCTION     0.22     1.81     8.88     0  01:50        1.72
  YS02001920           JUNCTION     0.30     2.02     9.02     0  01:50        1.82
  YS02001923           JUNCTION     0.17     1.87     9.13     0  01:50        1.60
  YS02001926           JUNCTION     0.20     1.75     9.20     0  01:50        1.45
  YS02001929           JUNCTION     0.12     1.67     9.36     0  01:50        1.23
  YS02006553           JUNCTION     0.76     2.07     8.36     0  01:59        2.07
  YS02006556           JUNCTION     0.73     2.39     8.70     0  01:59        2.39
  YS02006558           JUNCTION     0.78     2.50     8.77     0  01:59        2.50
  YS02006561           JUNCTION     0.18     1.04     7.70     0  01:59        0.93
  YS02163301           JUNCTION     0.58     2.03     8.55     0  01:59        2.03
  YS02163601           JUNCTION     0.68     2.08     8.48     0  01:51        2.08
  YS02164001           JUNCTION     0.61     2.10     8.56     0  02:53        2.10
  CC-1                 OUTFALL      0.00     0.00     0.00     0  00:00        0.00
  CC-2                 OUTFALL      0.00     0.00     0.00     0  00:00        0.00
  JK-1                 OUTFALL      0.00     0.00     0.00     0  00:00        0.00
  JK-2                 OUTFALL      0.00     0.00     0.00     0  00:00        0.00
  WSC                  OUTFALL      0.20     0.30     0.97     0  02:20        0.30
  CC-storage           STORAGE      0.97     1.99     7.49     0  02:36        1.99
  JK-storage           STORAGE      2.75     4.24     5.04     0  02:05        4.18
  
  
  *******************
  Node Inflow Summary
  *******************
  
  -------------------------------------------------------------------------------------------------
                                  Maximum  Maximum                  Lateral       Total        Flow
                                  Lateral    Total  Time of Max      Inflow      Inflow     Balance
                                   Inflow   Inflow   Occurrence      Volume      Volume       Error
  Node                 Type           LPS      LPS  days hr:min    10^6 ltr    10^6 ltr     Percent
  -------------------------------------------------------------------------------------------------
  WS02003060           JUNCTION     16.53   550.57     0  02:17       0.476        6.68       0.034
  WS02003066           JUNCTION      0.00   533.22     0  02:17           0        6.21       0.022
  WS02003067           JUNCTION      0.00   533.12     0  02:18           0        6.21       0.067
  WS02003069           JUNCTION      0.32   550.59     0  02:18     0.00922        6.69       0.059
  WS02003072           JUNCTION      0.00   550.20     0  02:19           0        6.68       0.104
  WS02003073           JUNCTION      1.82   551.71     0  02:19      0.0524        6.73       0.085
  WS02004401           JUNCTION      0.00   537.54     0  03:17           0        6.31       0.162
  WS02004402           JUNCTION      0.00   536.17     0  03:14           0         6.3       0.164
  WS02004403           JUNCTION      0.00   538.90     0  03:14           0        6.29       0.160
  WS02004404           JUNCTION      0.16   557.38     0  02:15     0.00467        6.28       0.127
  WS02004405           JUNCTION      0.04   610.05     0  02:15      0.0011        6.28       0.154
  WS02004406           JUNCTION      0.00   542.30     0  03:14           0        6.27       0.330
  WS02004407           JUNCTION      0.00   536.64     0  02:15           0        6.25       0.018
  WS02004409           JUNCTION      0.00   536.11     0  02:15           0        6.24       0.043
  WS02004410           JUNCTION      0.00   535.02     0  02:15           0        6.24       0.070
  WS02004411           JUNCTION      0.00   534.30     0  02:16           0        6.24       0.089
  WS02004412           JUNCTION      0.00   533.59     0  02:16           0        6.23       0.120
  WS02004413           JUNCTION      0.00   533.63     0  02:16           0        6.22       0.212
  WS02006109           JUNCTION      1.23   554.49     0  02:50      0.0354        6.36       0.116
  WS02006110           JUNCTION      0.00   554.12     0  03:15           0        6.35       0.105
  WS02006111           JUNCTION      0.00   561.58     0  03:07           0        6.34       0.012
  WS02006112           JUNCTION      0.00   542.45     0  03:08           0        6.34       0.276
  WS02006113           JUNCTION      0.00   566.49     0  02:51           0        6.34       0.032
  WS02006115           JUNCTION      0.00   549.87     0  03:31           0        6.32       0.103
  WS02006116           JUNCTION      0.00   538.06     0  03:12           0        6.31       0.092
  WS02006228           JUNCTION      0.00   552.65     0  02:50           0        6.32       0.046
  WS02006229           JUNCTION      0.00   553.26     0  02:50           0        6.33       0.078
  WS02006230           JUNCTION     10.28   588.61     0  03:25       0.296        6.33       0.042
  WS02006231           JUNCTION      0.00   589.04     0  03:15           0        6.04       0.032
  WS02006232           JUNCTION      0.00   587.65     0  03:15           0        6.05       0.151
  WS02006234           JUNCTION      0.00   580.65     0  03:15           0        6.04      -0.119
  WS02006235           JUNCTION      0.00   568.62     0  03:15           0        6.08       0.141
  WS02006238           JUNCTION      0.00   422.99     0  03:14           0        5.25      -0.123
  WS02006239           JUNCTION      0.00   422.51     0  03:14           0        5.23      -0.178
  WS02006240           JUNCTION      0.00   420.42     0  03:21           0        5.21      -0.046
  WS02006242           JUNCTION      0.00   420.56     0  03:32           0         5.2       0.020
  WS02006243           JUNCTION      0.00   420.43     0  03:32           0        5.18      -0.096
  WS02006245           JUNCTION      0.00   419.54     0  03:21           0         5.2       0.259
  WS02006247           JUNCTION      0.00   418.76     0  03:21           0        5.19      -0.005
  WS02006248           JUNCTION      0.00   419.24     0  02:25           0         5.2       0.019
  WS02006249           JUNCTION      0.00   467.70     0  01:20           0         5.4       0.249
  WS02006251           JUNCTION      0.08   409.07     0  02:53     0.00222         5.4       0.013
  WS02006252           JUNCTION      0.00   400.00     0  00:00           0        5.38      -0.215
  WS02006256           JUNCTION      0.00   300.00     0  00:00           0        1.21      -0.683
  WSF200               JUNCTION      0.00   533.36     0  02:17           0        6.21       0.007
  YS02001580           JUNCTION      0.00    74.50     0  01:44           0     0.00431       1.339
  YS02001583           JUNCTION      0.00   119.09     0  01:43           0      0.0158      -4.118
  YS02001586           JUNCTION   1240.64  1240.64     0  02:04        2.91        2.92       0.035
  YS02001590           JUNCTION      0.00   318.40     0  02:04           0         1.8      -0.020
  YS02001593           JUNCTION      0.00   318.31     0  02:30           0         1.8       0.000
  YS02001596           JUNCTION      0.00   318.08     0  01:53           0         1.8      -0.006
  YS02001600           JUNCTION      0.00   319.58     0  02:30           0         1.8       0.012
  YS02001601           JUNCTION   2128.94  2446.44     0  02:02        3.91        5.71       0.014
  YS02001602           JUNCTION      0.00   498.29     0  01:43           0        2.84       0.017
  YS02001605           JUNCTION      0.00   498.13     0  01:43           0        2.62       0.026
  YS02001607           JUNCTION      0.00   497.88     0  01:43           0        2.62       0.069
  YS02001610           JUNCTION      0.00   956.13     0  02:05           0        3.36       0.072
  YS02001613           JUNCTION      0.00   620.49     0  02:05           0        2.53       0.064
  YS02001616           JUNCTION      0.00   619.64     0  02:05           0        2.53       0.013
  YS02001619           JUNCTION   2204.78  2204.78     0  02:03        4.68        6.46      -0.001
  YS02001622           JUNCTION      0.00  1053.93     0  02:06           0         5.5       0.000
  YS02001625           JUNCTION      0.00  1505.46     0  02:08           0        6.06       0.182
  YS02001629           JUNCTION      0.00   912.76     0  01:48           0        4.08       0.008
  YS02001633           JUNCTION   1601.97  1601.97     0  02:02        2.88        6.21       0.056
  YS02001641           JUNCTION      0.00  1307.99     0  01:48           0        5.47       0.050
  YS02001644           JUNCTION   1428.92  2728.12     0  02:02         2.5        8.13       0.038
  YS02001647           JUNCTION      0.00  1673.77     0  01:48           0        6.39       0.002
  YS02001649           JUNCTION      0.00  1861.24     0  01:47           0        8.53       0.003
  YS02001652           JUNCTION      0.00  1400.31     0  02:01           0        2.31      -0.040
  YS02001655           JUNCTION      0.15  1400.00     0  02:01     0.00443        2.31      -0.017
  YS02001658           JUNCTION      0.00  1399.97     0  02:01           0        2.31      -0.054
  YS02001661           JUNCTION      0.00  1399.82     0  02:01           0        2.31      -0.014
  YS02001664           JUNCTION   1390.90  1390.90     0  02:02        2.31        2.31      -0.005
  YS02001745           JUNCTION    865.92   865.92     0  02:01        1.38        1.39       0.124
  YS02001748           JUNCTION      0.04   872.80     0  02:01      0.0013        1.39      -0.165
  YS02001751           JUNCTION      0.01   874.25     0  02:01    0.000317        1.38      -0.020
  YS02001754           JUNCTION      0.26   874.11     0  02:01     0.00749        1.39      -0.082
  YS02001757           JUNCTION      0.00  3084.35     0  02:00           0        13.6       0.014
  YS02001759           JUNCTION   1205.65  1354.69     0  02:00        1.91        3.87      -0.011
  YS02001762           JUNCTION      0.00   703.40     0  01:54           0        1.96       0.010
  YS02001765           JUNCTION      0.00   704.38     0  01:54           0        1.96       0.003
  YS02001767           JUNCTION      0.54   704.35     0  01:54      0.0154        1.96       0.001
  YS02001770           JUNCTION   1720.29  1720.29     0  02:02        2.89        2.93       0.008
  YS02001774           JUNCTION      0.00   852.15     0  02:05           0       0.792       0.188
  YS02001779           JUNCTION      0.01   851.75     0  02:05    0.000144       0.744      -0.047
  YS02001783           JUNCTION      0.00  1185.23     0  01:59           0        5.54       0.005
  YS02001784           JUNCTION      1.06  1184.21     0  01:59      0.0305        5.57       0.009
  YS02001786           JUNCTION      0.06  1184.71     0  01:59     0.00162        5.57       0.014
  YS02001788           JUNCTION      0.07  1185.84     0  01:59     0.00204        5.57       0.006
  YS02001790           JUNCTION      0.15  1188.23     0  01:59     0.00446        5.58       0.025
  YS02001791           JUNCTION      0.00  1310.87     0  02:01           0        5.57      -0.036
  YS02001793           JUNCTION      0.00  1267.25     0  02:02           0        5.58       0.004
  YS02001882           JUNCTION      0.00    30.22     0  01:47           0      0.0136       5.042
  YS02001884           JUNCTION      0.00    37.86     0  01:46           0        0.05       5.306
  YS02001887           JUNCTION   1294.62  1298.36     0  02:01        1.97        2.01       0.222
  YS02001890           JUNCTION      0.00  1297.65     0  02:01           0        1.96       0.262
  YS02001895           JUNCTION      0.00   518.21     0  01:59           0        1.58       0.106
  YS02001898           JUNCTION      0.00   518.19     0  02:10           0        1.58       0.021
  YS02001901           JUNCTION      0.00   517.97     0  02:07           0        1.58       0.209
  YS02001904           JUNCTION      0.00   518.05     0  02:10           0        1.59       0.182
  YS02001907           JUNCTION      0.00  3095.83     0  02:02           0        5.99       0.305
  YS02001910           JUNCTION      0.00  1993.20     0  02:05           0        4.21       0.175
  YS02001915           JUNCTION   1541.47  2299.39     0  02:02        2.75        4.31       0.036
  YS02001918           JUNCTION      0.00   761.82     0  02:02           0        1.57       0.011
  YS02001920           JUNCTION      2.87   761.62     0  02:02      0.0827        1.56       0.066
  YS02001923           JUNCTION      0.04   758.62     0  02:03     0.00109        1.47      -0.020
  YS02001926           JUNCTION      0.05   758.26     0  02:03      0.0015        1.45       0.015
  YS02001929           JUNCTION    757.72   757.72     0  02:03        1.45        1.45      -0.037
  YS02006553           JUNCTION      0.00   795.55     0  02:27           0        3.09       0.391
  YS02006556           JUNCTION      0.00   796.00     0  02:30           0         3.1       0.263
  YS02006558           JUNCTION   1757.82  1757.82     0  02:02        2.89        5.77       0.061
  YS02006561           JUNCTION      0.00  1180.55     0  01:59           0        5.54      -0.000
  YS02163301           JUNCTION      0.00   911.73     0  01:48           0        4.08       0.035
  YS02163601           JUNCTION      0.11  1305.37     0  01:48     0.00317        5.47       0.092
  YS02164001           JUNCTION      0.00  1305.22     0  01:48           0        5.46       0.041
  CC-1                 OUTFALL       0.00   683.00     0  00:00           0        4.85       0.000
  CC-2                 OUTFALL       0.00   683.00     0  00:00           0        4.25       0.000
  JK-1                 OUTFALL       0.00  1000.00     0  00:00           0         2.7       0.000
  JK-2                 OUTFALL       0.00  1000.00     0  00:00           0        1.62       0.000
  WSC                  OUTFALL       0.00   551.11     0  02:20           0        6.72       0.000
  CC-storage           STORAGE       0.00  3084.42     0  02:00           0        15.9      -0.184
  JK-storage           STORAGE       0.00  1302.53     0  02:02           0        5.73       0.093
  
  
  **********************
  Node Surcharge Summary
  **********************
  
  Surcharging occurs when water rises above the top of the highest conduit.
  ---------------------------------------------------------------------
                                               Max. Height   Min. Depth
                                   Hours       Above Crown    Below Rim
  Node                 Type      Surcharged         Meters       Meters
  ---------------------------------------------------------------------
  WS02004404           JUNCTION        0.01          0.020        2.760
  WS02006109           JUNCTION        2.56          0.321        1.499
  WS02006110           JUNCTION        0.62          0.229        1.621
  WS02006112           JUNCTION        0.75          0.079        1.601
  WS02006228           JUNCTION        2.55          0.306        1.894
  WS02006229           JUNCTION        2.58          0.366        2.084
  WS02006230           JUNCTION        0.64          0.257        1.313
  WS02006231           JUNCTION        0.75          0.344        1.186
  WS02006232           JUNCTION        2.73          0.501        0.979
  WS02006234           JUNCTION        1.11          0.506        0.734
  WS02006235           JUNCTION        2.55          0.716        0.574
  WS02006238           JUNCTION        2.64          0.755        0.675
  WS02006239           JUNCTION        2.58          1.290        0.000
  WS02006240           JUNCTION        2.60          0.950        0.440
  WS02006242           JUNCTION        2.77          0.820        0.000
  WS02006243           JUNCTION        2.63          0.770        0.000
  WS02006245           JUNCTION        2.62          0.590        0.260
  WS02006247           JUNCTION        2.66          0.571        0.189
  WS02006248           JUNCTION        2.60          0.380        0.000
  WS02006249           JUNCTION        2.64          0.390        0.000
  WS02006251           JUNCTION        0.82          0.365        0.815
  WS02006252           JUNCTION        3.32          1.100        0.000
  WS02006256           JUNCTION        7.18          2.050        0.000
  YS02001580           JUNCTION        1.04          0.450        0.000
  YS02001583           JUNCTION        1.05          0.500        0.000
  YS02001586           JUNCTION        1.26          0.510        0.000
  YS02001590           JUNCTION        1.35          0.750        0.000
  YS02001593           JUNCTION        1.35          0.694        0.146
  YS02001596           JUNCTION        1.46          1.070        0.000
  YS02001600           JUNCTION        1.60          1.190        0.000
  YS02001601           JUNCTION        1.87          1.440        0.000
  YS02001602           JUNCTION        1.79          1.270        0.000
  YS02001605           JUNCTION        1.75          1.180        0.000
  YS02001607           JUNCTION        1.35          0.680        0.000
  YS02001610           JUNCTION        1.38          0.680        0.000
  YS02001613           JUNCTION        1.35          0.674        0.026
  YS02001616           JUNCTION        1.32          0.610        0.000
  YS02001619           JUNCTION        1.31          0.610        0.000
  YS02001622           JUNCTION        1.31          0.610        0.010
  YS02001625           JUNCTION        1.46          0.780        0.000
  YS02001629           JUNCTION        1.26          0.470        0.000
  YS02001633           JUNCTION        1.51          1.060        0.000
  YS02001641           JUNCTION        1.46          1.100        0.000
  YS02001644           JUNCTION        1.43          0.920        0.000
  YS02001647           JUNCTION        1.24          0.817        0.083
  YS02001649           JUNCTION        1.36          1.050        0.000
  YS02001652           JUNCTION        1.20          0.899        0.231
  YS02001655           JUNCTION        0.99          0.849        0.351
  YS02001658           JUNCTION        0.57          0.595        0.705
  YS02001661           JUNCTION        0.20          0.366        1.024
  YS02001664           JUNCTION        0.01          0.017        1.293
  YS02001745           JUNCTION        0.03          0.049        1.301
  YS02001748           JUNCTION        0.45          0.373        0.817
  YS02001751           JUNCTION        0.85          0.602        0.598
  YS02001754           JUNCTION        1.14          0.775        0.375
  YS02001757           JUNCTION        1.43          1.210        0.000
  YS02001759           JUNCTION        1.35          1.210        0.000
  YS02001762           JUNCTION        1.32          1.150        0.000
  YS02001765           JUNCTION        1.28          1.100        0.000
  YS02001767           JUNCTION        1.25          1.030        0.000
  YS02001770           JUNCTION        1.23          0.920        0.000
  YS02001774           JUNCTION        1.30          1.050        0.000
  YS02001779           JUNCTION        1.11          0.680        0.000
  YS02001783           JUNCTION        0.87          0.539        1.061
  YS02001784           JUNCTION        0.83          0.383        1.107
  YS02001786           JUNCTION        0.70          0.144        1.286
  YS02001882           JUNCTION        0.79          0.830        0.000
  YS02001884           JUNCTION        0.80          0.841        0.029
  YS02001887           JUNCTION        0.85          0.950        0.000
  YS02001890           JUNCTION        0.87          0.760        0.000
  YS02001895           JUNCTION        0.78          0.569        0.181
  YS02001898           JUNCTION        0.77          0.598        0.142
  YS02001901           JUNCTION        0.83          0.681        0.189
  YS02001904           JUNCTION        0.82          0.661        0.189
  YS02001907           JUNCTION        1.18          0.950        0.000
  YS02001910           JUNCTION        0.91          1.014        0.086
  YS02001915           JUNCTION        0.79          1.000        0.000
  YS02001918           JUNCTION        0.67          0.810        0.000
  YS02001920           JUNCTION        0.69          1.016        0.124
  YS02001923           JUNCTION        0.28          0.657        0.163
  YS02001926           JUNCTION        0.32          0.753        0.147
  YS02001929           JUNCTION        0.16          0.667        0.113
  YS02006553           JUNCTION        1.22          1.074        0.116
  YS02006556           JUNCTION        1.04          1.350        0.000
  YS02006558           JUNCTION        1.02          1.400        0.000
  YS02006561           JUNCTION        0.64          0.240        0.910
  YS02163301           JUNCTION        1.48          1.030        0.000
  YS02163601           JUNCTION        1.55          1.080        0.000
  YS02164001           JUNCTION        1.46          1.100        0.000
  
  
  *********************
  Node Flooding Summary
  *********************
  
  Flooding refers to all water that overflows a node, whether it ponds or not.
  --------------------------------------------------------------------------
                                                             Total   Maximum
                                 Maximum   Time of Max       Flood    Ponded
                        Hours       Rate    Occurrence      Volume     Depth
  Node                 Flooded       LPS   days hr:min    10^6 ltr    Meters
  --------------------------------------------------------------------------
  WS02006239              0.01      0.43      0  02:53       0.000     0.000
  WS02006242              0.01      0.13      0  02:53       0.000     0.000
  WS02006243              0.01      0.43      0  02:53       0.000     0.000
  WS02006248              0.01     11.48      0  03:15       0.000     0.000
  WS02006249              0.79    113.32      0  02:53       0.189     0.000
  WS02006252              0.01    245.63      0  00:00       0.000     0.000
  WS02006256              1.12    293.19      0  00:00       0.376     0.000
  YS02001580              0.01     38.42      0  01:44       0.000     0.000
  YS02001583              0.01     90.92      0  01:44       0.000     0.000
  YS02001586              0.84    923.09      0  02:04       1.106     0.000
  YS02001590              0.01      0.39      0  02:53       0.000     0.000
  YS02001596              0.01      0.39      0  02:53       0.000     0.000
  YS02001600              0.01      0.75      0  01:44       0.000     0.000
  YS02001601              1.17   2048.57      0  02:02       2.867     0.000
  YS02001602              1.05     62.05      0  02:20       0.218     0.000
  YS02001605              0.01      0.30      0  02:30       0.000     0.000
  YS02001607              0.01      0.92      0  02:53       0.000     0.000
  YS02001610              0.94    956.05      0  02:05       1.575     0.000
  YS02001616              0.06      5.77      0  02:30       0.000     0.000
  YS02001619              0.20    536.88      0  02:03       0.221     0.000
  YS02001625              0.94   1505.22      0  02:08       2.716     0.000
  YS02001629              0.29    410.22      0  02:02       0.182     0.000
  YS02001633              0.01      1.92      0  01:59       0.000     0.000
  YS02001641              0.01     35.32      0  02:53       0.000     0.000
  YS02001644              0.45   2728.05      0  02:02       1.900     0.000
  YS02001649              0.01      1.58      0  01:59       0.000     0.000
  YS02001757              0.01      0.65      0  02:53       0.000     0.000
  YS02001759              0.01      0.73      0  01:59       0.000     0.000
  YS02001762              0.01      2.40      0  02:39       0.000     0.000
  YS02001765              0.01      2.16      0  02:39       0.000     0.000
  YS02001767              0.01      1.38      0  02:39       0.000     0.000
  YS02001770              0.14    761.58      0  02:02       0.214     0.000
  YS02001774              0.01      3.25      0  01:53       0.000     0.000
  YS02001779              0.40    851.46      0  02:05       0.722     0.000
  YS02001882              0.01      0.23      0  01:59       0.000     0.000
  YS02001887              0.01      1.27      0  01:59       0.000     0.000
  YS02001890              0.33    782.77      0  02:01       0.376     0.000
  YS02001907              0.60   3095.50      0  02:02       3.089     0.000
  YS02001915              0.10    306.95      0  02:02       0.070     0.000
  YS02001918              0.01     41.20      0  01:50       0.000     0.000
  YS02006556              0.01      1.36      0  01:59       0.000     0.000
  YS02163301              0.01      0.94      0  01:59       0.000     0.000
  YS02163601              0.01      1.99      0  01:51       0.000     0.000
  YS02164001              0.01      0.61      0  02:53       0.000     0.000
  
  
  **********************
  Storage Volume Summary
  **********************
  
  ------------------------------------------------------------------------------------------------
                         Average    Avg   Evap  Exfil     Maximum    Max    Time of Max    Maximum
                          Volume   Pcnt   Pcnt   Pcnt      Volume   Pcnt     Occurrence    Outflow
  Storage Unit           1000 m³   Full   Loss   Loss     1000 m³   Full    days hr:min        LPS
  ------------------------------------------------------------------------------------------------
  CC-storage               2.714   42.3    0.0    0.0       5.556   86.7       0  02:36    1783.53
  JK-storage               0.138   47.5    0.0    0.0       0.213   73.0       0  02:05    2300.00
  
  
  ***********************
  Outfall Loading Summary
  ***********************
  
  -----------------------------------------------------------
                         Flow       Avg       Max       Total
                         Freq      Flow      Flow      Volume
  Outfall Node           Pcnt       LPS       LPS    10^6 ltr
  -----------------------------------------------------------
  CC-1                  26.62    683.00    683.00       4.855
  CC-2                  23.64    683.00    683.00       4.246
  JK-1                  12.78   1000.00   1000.00       2.704
  JK-2                   6.68   1000.00   1000.00       1.625
  WSC                   99.96    294.69    551.11       6.724
  -----------------------------------------------------------
  System                33.94   3660.69   3908.63      20.153
  
  
  ********************
  Link Flow Summary
  ********************
  
  -----------------------------------------------------------------------------
                                 Maximum  Time of Max   Maximum    Max/    Max/
                                  |Flow|   Occurrence   |Veloc|    Full    Full
  Link                 Type          LPS  days hr:min     m/sec    Flow   Depth
  -----------------------------------------------------------------------------
  1                    CONDUIT    551.11     0  02:20      2.82    0.19    0.30
  WS02003060WS02003069 CONDUIT    550.27     0  02:18      1.64    0.22    0.34
  WS02003066WSF200     CONDUIT    533.36     0  02:17      2.85    0.09    0.22
  WS02003067WS02003066 CONDUIT    533.22     0  02:17      1.20    0.17    0.41
  WS02003069WS02003072 CONDUIT    550.20     0  02:19      1.37    0.26    0.39
  WS02003072WS02003073 CONDUIT    549.89     0  02:19      1.43    1.19    0.37
  WS02004401WS02004402 CONDUIT    536.17     0  03:14      0.98    0.64    0.89
  WS02004402WS02004403 CONDUIT    538.90     0  03:14      0.97    0.77    0.91
  WS02004403WS02004404 CONDUIT    557.22     0  02:15      0.92    0.40    0.96
  WS02004404WS02004405 CONDUIT    610.01     0  02:15      1.08    5.98    0.98
  WS02004405WS02004406 CONDUIT    542.30     0  03:14      0.99    1.07    0.96
  WS02004406WS02004407 CONDUIT    536.64     0  02:15      1.04    0.24    0.63
  WS02004407WS02004409 CONDUIT    536.11     0  02:15      1.51    0.19    0.48
  WS02004409WS02004410 CONDUIT    535.02     0  02:15      0.98    0.69    0.67
  WS02004410WS02004411 CONDUIT    534.30     0  02:16      0.93    0.73    0.68
  WS02004411WS02004412 CONDUIT    533.59     0  02:16      0.92    0.76    0.69
  WS02004412WS02004413 CONDUIT    533.63     0  02:16      0.82    0.36    0.78
  WS02004413WS02003067 CONDUIT    533.12     0  02:18      1.11    0.23    0.59
  WS02006109WS02006110 CONDUIT    554.12     0  03:15      1.10    1.07    1.00
  WS02006110WS02006113 CONDUIT    566.49     0  02:51      1.37    0.52    0.79
  WS02006111WS02006112 CONDUIT    542.45     0  03:08      1.81    0.26    0.67
  WS02006112WS02006115 CONDUIT    549.87     0  03:31      0.81    0.32    0.88
  WS02006113WS02006111 CONDUIT    561.58     0  03:07      2.47    0.67    0.46
  WS02006115WS02006116 CONDUIT    538.06     0  03:12      0.99    0.69    0.78
  WS02006116WS02004401 CONDUIT    537.54     0  03:17      0.98    0.74    0.86
  WS02006228WS02006109 CONDUIT    553.26     0  02:50      1.10    2.42    1.00
  WS02006229WS02006228 CONDUIT    552.65     0  02:50      1.14    1.83    1.00
  WS02006230WS02006229 CONDUIT    553.26     0  02:50      1.44   12.31    1.00
  WS02006231WS02006230 CONDUIT    578.33     0  03:25      1.56    8.77    1.00
  WS02006232WS02006231 CONDUIT    589.04     0  03:15      1.53    1.23    1.00
  WS02006234WS02006232 CONDUIT    587.65     0  03:15      1.53    1.19    1.00
  WS02006235WS02006234 CONDUIT    580.65     0  03:15      1.51    6.13    1.00
  WS02006238WS02006235 CONDUIT    423.81     0  02:25      1.45    0.95    1.00
  WS02006239WS02006238 CONDUIT    422.99     0  03:14      1.16    1.35    1.00
  WS02006240WS02006239 CONDUIT    422.51     0  03:14      1.29    1.33    1.00
  WS02006242WS02006240 CONDUIT    420.42     0  03:21      1.18    1.67    1.00
  WS02006243WS02006242 CONDUIT    420.56     0  03:32      1.41    0.90    1.00
  WS02006245WS02006243 CONDUIT    420.43     0  03:32      1.45    1.24    1.00
  WS02006247WS02006245 CONDUIT    419.54     0  03:21      1.43    3.33    1.00
  WS02006248WS02006247 CONDUIT    418.76     0  03:21      1.44    0.91    1.00
  WS02006249WS02006248 CONDUIT    419.24     0  02:25      1.39    2.30    1.00
  WS02006251WS02006249 CONDUIT    467.70     0  01:20      1.99    1.35    1.00
  WS02006252WS02006251 CONDUIT    408.99     0  02:53     24.61    1.50    1.00
  WS02006256WS02006235 CONDUIT    288.91     0  00:00      4.23    3.06    1.00
  WSF200WS02003060     CONDUIT    534.04     0  02:17      2.06    0.12    0.28
  YS02001580YS02001583 CONDUIT     74.50     0  01:44      0.53    0.29    1.00
  YS02001583YS02001586 CONDUIT    119.09     0  01:43      0.51    0.18    1.00
  YS02001586YS02001590 CONDUIT    318.40     0  02:04      1.24    0.56    1.00
  YS02001590YS02001593 CONDUIT    318.31     0  02:30      1.13    2.00    1.00
  YS02001593YS02001596 CONDUIT    318.08     0  01:53      1.69    0.50    1.00
  YS02001596YS02001600 CONDUIT    319.58     0  02:30      1.26    0.62    1.00
  YS02001600YS02001601 CONDUIT    318.64     0  02:30      1.13    0.55    1.00
  YS02001601YS02001602 CONDUIT    498.29     0  01:43      1.76    1.80    1.00
  YS02001602YS02001605 CONDUIT    498.13     0  01:43      1.76   10.54    1.00
  YS02001605YS02001607 CONDUIT    497.88     0  01:43      1.76    2.73    1.00
  YS02001607YS02001610 CONDUIT    502.68     0  01:43      0.64    0.48    1.00
  YS02001610YS02001613 CONDUIT    619.82     0  02:05      0.79    0.71    1.00
  YS02001613YS02001616 CONDUIT    620.49     0  02:05      0.79    0.53    1.00
  YS02001616YS02001619 CONDUIT    619.64     0  02:05      0.79    1.08    1.00
  YS02001619YS02001622 CONDUIT   1053.93     0  02:06      1.34    1.55    1.00
  YS02001622YS02001625 CONDUIT   1053.70     0  02:08      1.34    0.56    1.00
  YS02001625YS02001629 CONDUIT    912.76     0  01:48      1.16    0.43    1.00
  YS02001629YS02163301 CONDUIT    911.73     0  01:48      1.16    1.12    1.00
  YS02001633YS02163601 CONDUIT   1305.26     0  01:48      1.66    1.37    1.00
  YS02001641YS02001644 CONDUIT   1311.09     0  01:48      1.67    4.24    1.00
  YS02001644YS02001647 CONDUIT   1673.77     0  01:48      2.15    0.98    1.00
  YS02001647YS02001649 CONDUIT   1683.44     0  01:48      2.29    0.89    1.00
  YS02001649YS02001757 CONDUIT   1843.47     0  01:48      2.43    1.12    1.00
  YS02001652YS02001649 CONDUIT   1400.60     0  02:01      1.78    0.69    1.00
  YS02001655YS02001652 CONDUIT   1400.31     0  02:01      1.78    0.68    1.00
  YS02001658YS02001655 CONDUIT   1399.85     0  02:01      1.82    0.59    1.00
  YS02001661YS02001658 CONDUIT   1399.97     0  02:01      2.19    0.55    1.00
  YS02001664YS02001661 CONDUIT   1399.82     0  02:01      2.11    0.44    1.00
  YS02001745YS02001748 CONDUIT    872.75     0  02:01      2.03    0.34    1.00
  YS02001748YS02001751 CONDUIT    874.24     0  02:01      1.62    0.44    1.00
  YS02001751YS02001754 CONDUIT    873.85     0  02:01      1.40    0.42    1.00
  YS02001754YS02001757 CONDUIT    874.11     0  02:01      1.11    0.35    1.00
  YS02001757CaochengTiaoxuchi CONDUIT   3084.42     0  02:00      3.93    1.34    1.00
  YS02001759YS02001757 CONDUIT   1355.69     0  02:00      1.73    0.96    1.00
  YS02001762YS02001759 CONDUIT    704.32     0  01:54      0.90    0.81    1.00
  YS02001765YS02001762 CONDUIT    703.40     0  01:54      0.90    0.66    1.00
  YS02001767YS02001765 CONDUIT    704.38     0  01:54      0.90    0.89    1.00
  YS02001770YS02001767 CONDUIT    703.82     0  01:54      0.90    2.79    1.00
  YS02001774YS02001770 CONDUIT    852.15     0  02:05      1.08    0.54    1.00
  YS02001779YS02001774 CONDUIT    851.75     0  02:05      1.08    0.43    1.00
  YS02001783YS02001784 CONDUIT   1183.15     0  01:59      2.35    1.63    1.00
  YS02001784YS02001785 CONDUIT   1184.65     0  01:59      2.36    2.76    1.00
  YS02001786YS02001788 CONDUIT   1185.77     0  01:59      2.51    2.28    0.89
  YS02001788YS02001790 CONDUIT   1188.08     0  01:59      2.73    0.88    0.85
  YS02001790YS02001791 CONDUIT   1310.87     0  02:01      3.45    1.43    0.71
  YS02001791YS02001793 CONDUIT   1267.25     0  02:02      6.75    0.54    0.45
  YS02001793JiankangQianchi CONDUIT   1302.53     0  02:02      2.59    0.10    0.65
  YS02001882YS02001884 CONDUIT     30.22     0  01:47      0.18    0.03    1.00
  YS02001884YS02001887 CONDUIT     37.86     0  01:46      0.14    0.05    1.00
  YS02001887YS02001890 CONDUIT   1297.65     0  02:01      1.65    2.22    1.00
  YS02001890YS02001895 CONDUIT    518.21     0  01:59      0.66    0.24    1.00
  YS02001895YS02001898 CONDUIT    518.19     0  02:10      0.66    0.90    1.00
  YS02001898YS02001901 CONDUIT    517.97     0  02:07      0.66    0.33    1.00
  YS02001901YS02001904 CONDUIT    518.05     0  02:10      0.66    0.80    1.00
  YS02001904YS02001907 CONDUIT    521.48     0  01:59      0.66    0.18    1.00
  YS02001907YS02006553 CONDUIT    795.55     0  02:27      0.88    0.94    1.00
  YS02001910YS02001907 CONDUIT   1992.97     0  02:05      2.54    1.12    1.00
  YS02001915YS02001910 CONDUIT   1993.20     0  02:05      2.54    0.99    1.00
  YS02001918YS02001915 CONDUIT    761.78     0  02:02      0.97    0.42    1.00
  YS02001920YS02001918 CONDUIT    761.82     0  02:02      0.97    0.74    1.00
  YS02001923YS02001920 CONDUIT    758.75     0  02:02      0.97    0.34    1.00
  YS02001926YS02001923 CONDUIT    758.58     0  02:03      0.97    1.08    1.00
  YS02001929YS02001926 CONDUIT    758.21     0  02:03      1.07    0.36    1.00
  YS02006553YS02006556 CONDUIT    796.00     0  02:30      1.01    0.68    1.00
  YS02006556YS02006558 CONDUIT    797.32     0  02:30      1.02    0.63    1.00
  YS02006558YS02006561 CONDUIT   1180.55     0  01:59      4.18    2.61    1.00
  YS02006561YS02001783 CONDUIT   1185.23     0  01:59      2.36    0.61    1.00
  YS02163301YS02001633 CONDUIT    911.87     0  01:47      1.16    0.86    1.00
  YS02163601YS02164001 CONDUIT   1305.22     0  01:48      1.66    1.16    1.00
  YS02164001YS02001641 CONDUIT   1307.99     0  01:48      1.67    1.79    1.00
  CC-R1                PUMP       683.00     0  00:00              1.00
  CC-R2                PUMP       683.00     0  00:00              1.00
  CC-S1                PUMP       200.00     0  00:00              1.00
  CC-S2                PUMP       200.00     0  00:00              1.00
  JK-R1                PUMP      1000.00     0  00:00              1.00
  JK-R2                PUMP      1000.00     0  00:00              1.00
  JK-S                 PUMP       300.00     0  00:00              1.00
  
  
  ***************************
  Flow Classification Summary
  ***************************
  
  -------------------------------------------------------------------------------------
                      Adjusted    ---------- Fraction of Time in Flow Class ---------- 
                       /Actual         Up    Down  Sub   Sup   Up    Down  Norm  Inlet 
  Conduit               Length    Dry  Dry   Dry   Crit  Crit  Crit  Crit  Ltd   Ctrl  
  -------------------------------------------------------------------------------------
  1                       1.00   0.00  0.00  0.00  0.00  1.00  0.00  0.00  0.38  0.00
  WS02003060WS02003069    1.00   0.00  0.00  0.00  0.98  0.02  0.00  0.00  0.56  0.00
  WS02003066WSF200        1.00   0.13  0.00  0.00  0.00  0.87  0.00  0.00  0.77  0.00
  WS02003067WS02003066    1.00   0.10  0.02  0.00  0.88  0.00  0.00  0.00  0.00  0.00
  WS02003069WS02003072    1.00   0.00  0.00  0.00  0.99  0.01  0.00  0.00  0.64  0.00
  WS02003072WS02003073    1.00   0.00  0.00  0.00  0.00  0.00  0.00  1.00  0.00  0.00
  WS02004401WS02004402    1.00   0.02  0.00  0.00  0.98  0.00  0.00  0.00  0.00  0.00
  WS02004402WS02004403    1.00   0.02  0.00  0.00  0.97  0.00  0.00  0.00  0.00  0.00
  WS02004403WS02004404    1.00   0.00  0.03  0.00  0.97  0.00  0.00  0.00  0.00  0.00
  WS02004404WS02004405    1.00   0.00  0.00  0.00  1.00  0.00  0.00  0.00  0.01  0.00
  WS02004405WS02004406    1.00   0.00  0.00  0.00  1.00  0.00  0.00  0.00  0.00  0.00
  WS02004406WS02004407    1.00   0.00  0.05  0.00  0.95  0.00  0.00  0.00  0.00  0.00
  WS02004407WS02004409    1.00   0.05  0.00  0.00  0.94  0.01  0.00  0.00  0.94  0.00
  WS02004409WS02004410    1.00   0.05  0.00  0.00  0.95  0.00  0.00  0.00  0.03  0.00
  WS02004410WS02004411    1.00   0.05  0.00  0.00  0.95  0.00  0.00  0.00  0.01  0.00
  WS02004411WS02004412    1.00   0.05  0.00  0.00  0.95  0.00  0.00  0.00  0.00  0.00
  WS02004412WS02004413    1.00   0.05  0.00  0.00  0.94  0.00  0.00  0.00  0.01  0.00
  WS02004413WS02003067    1.00   0.06  0.04  0.00  0.00  0.00  0.90  0.00  0.00  0.00
  WS02006109WS02006110    1.00   0.00  0.01  0.00  0.98  0.00  0.01  0.00  0.00  0.00
  WS02006110WS02006113    1.00   0.01  0.01  0.00  0.98  0.00  0.00  0.00  0.00  0.00
  WS02006111WS02006112    1.00   0.02  0.00  0.00  0.98  0.00  0.00  0.00  0.98  0.00
  WS02006112WS02006115    1.00   0.02  0.00  0.00  0.97  0.00  0.00  0.00  0.00  0.00
  WS02006113WS02006111    1.00   0.02  0.00  0.00  0.00  0.98  0.00  0.00  0.18  0.00
  WS02006115WS02006116    1.00   0.02  0.00  0.00  0.97  0.00  0.00  0.01  0.00  0.00
  WS02006116WS02004401    1.00   0.02  0.00  0.00  0.98  0.00  0.00  0.00  0.00  0.00
  WS02006228WS02006109    1.00   0.00  0.00  0.00  1.00  0.00  0.00  0.00  0.00  0.00
  WS02006229WS02006228    1.00   0.00  0.00  0.00  0.99  0.00  0.00  0.01  0.00  0.00
  WS02006230WS02006229    1.00   0.00  0.00  0.00  0.99  0.00  0.00  0.01  0.00  0.00
  WS02006231WS02006230    1.00   0.00  0.00  0.00  0.38  0.00  0.62  0.00  0.00  0.00
  WS02006232WS02006231    1.00   0.00  0.00  0.00  0.99  0.00  0.01  0.00  0.00  0.00
  WS02006234WS02006232    1.00   0.00  0.00  0.00  1.00  0.00  0.00  0.00  0.06  0.00
  WS02006235WS02006234    1.00   0.00  0.00  0.00  0.87  0.00  0.13  0.00  0.00  0.00
  WS02006238WS02006235    1.00   0.00  0.00  0.00  1.00  0.00  0.00  0.00  0.00  0.00
  WS02006239WS02006238    1.00   0.00  0.00  0.00  1.00  0.00  0.00  0.00  0.12  0.00
  WS02006240WS02006239    1.00   0.00  0.00  0.00  0.68  0.00  0.00  0.32  0.01  0.00
  WS02006242WS02006240    1.00   0.00  0.00  0.00  0.98  0.00  0.01  0.00  0.00  0.00
  WS02006243WS02006242    1.00   0.00  0.00  0.00  0.99  0.00  0.00  0.01  0.40  0.00
  WS02006245WS02006243    1.00   0.00  0.00  0.00  0.86  0.00  0.00  0.14  0.00  0.00
  WS02006247WS02006245    1.00   0.00  0.00  0.00  0.97  0.00  0.00  0.02  0.00  0.00
  WS02006248WS02006247    1.00   0.00  0.00  0.00  0.99  0.00  0.00  0.01  0.34  0.00
  WS02006249WS02006248    1.00   0.00  0.00  0.00  0.61  0.00  0.39  0.00  0.00  0.00
  WS02006251WS02006249    1.00   0.00  0.00  0.00  0.99  0.01  0.00  0.00  0.41  0.00
  WS02006252WS02006251    1.00   0.00  0.42  0.00  0.10  0.00  0.47  0.00  0.00  0.00
  WS02006256WS02006235    1.00   0.00  0.00  0.00  1.00  0.00  0.00  0.00  0.00  0.00
  WSF200WS02003060        1.00   0.00  0.13  0.00  0.23  0.64  0.00  0.00  0.37  0.00
  YS02001580YS02001583    1.00   0.21  0.53  0.00  0.26  0.00  0.00  0.00  0.62  0.00
  YS02001583YS02001586    1.00   0.40  0.29  0.00  0.31  0.00  0.00  0.00  0.62  0.00
  YS02001586YS02001590    1.00   0.13  0.00  0.00  0.47  0.04  0.00  0.37  0.33  0.00
  YS02001590YS02001593    1.00   0.13  0.01  0.00  0.18  0.00  0.69  0.00  0.00  0.00
  YS02001593YS02001596    1.00   0.13  0.00  0.00  0.20  0.01  0.00  0.66  0.02  0.00
  YS02001596YS02001600    1.00   0.13  0.00  0.00  0.25  0.01  0.00  0.61  0.03  0.00
  YS02001600YS02001601    1.00   0.13  0.01  0.00  0.87  0.00  0.00  0.00  0.57  0.00
  YS02001601YS02001602    1.00   0.13  0.01  0.00  0.87  0.00  0.00  0.00  0.00  0.00
  YS02001602YS02001605    1.00   0.13  0.00  0.00  0.87  0.00  0.00  0.00  0.00  0.00
  YS02001605YS02001607    1.00   0.13  0.00  0.00  0.87  0.00  0.00  0.00  0.00  0.00
  YS02001607YS02001610    1.00   0.13  0.00  0.00  0.86  0.00  0.00  0.00  0.01  0.00
  YS02001610YS02001613    1.00   0.13  0.00  0.00  0.87  0.00  0.00  0.00  0.00  0.00
  YS02001613YS02001616    1.00   0.13  0.00  0.00  0.87  0.00  0.00  0.00  0.00  0.00
  YS02001616YS02001619    1.00   0.13  0.00  0.00  0.87  0.00  0.00  0.00  0.00  0.00
  YS02001619YS02001622    1.00   0.13  0.00  0.00  0.87  0.00  0.00  0.00  0.27  0.00
  YS02001622YS02001625    1.00   0.13  0.00  0.00  0.87  0.00  0.00  0.00  0.02  0.00
  YS02001625YS02001629    1.00   0.13  0.03  0.00  0.23  0.00  0.61  0.00  0.00  0.00
  YS02001629YS02163301    1.00   0.14  0.01  0.00  0.85  0.00  0.00  0.00  0.00  0.00
  YS02001633YS02163601    1.00   0.00  0.01  0.00  0.99  0.00  0.00  0.00  0.14  0.00
  YS02001641YS02001644    1.00   0.00  0.01  0.00  0.99  0.00  0.00  0.00  0.00  0.00
  YS02001644YS02001647    1.00   0.00  0.15  0.00  0.85  0.00  0.00  0.00  0.00  0.00
  YS02001647YS02001649    1.00   0.00  0.15  0.00  0.62  0.23  0.00  0.00  0.56  0.00
  YS02001649YS02001757    1.00   0.00  0.00  0.00  0.84  0.16  0.00  0.00  0.37  0.00
  YS02001652YS02001649    1.00   0.00  0.00  0.00  0.98  0.02  0.00  0.00  0.69  0.00
  YS02001655YS02001652    1.00   0.00  0.00  0.00  0.26  0.01  0.00  0.73  0.04  0.00
  YS02001658YS02001655    1.00   0.00  0.14  0.00  0.73  0.13  0.00  0.00  0.60  0.00
  YS02001661YS02001658    1.00   0.14  0.00  0.00  0.57  0.29  0.00  0.00  0.62  0.00
  YS02001664YS02001661    1.00   0.13  0.00  0.00  0.81  0.07  0.00  0.00  0.82  0.00
  YS02001745YS02001748    1.00   0.00  0.00  0.00  0.18  0.00  0.00  0.82  0.04  0.00
  YS02001748YS02001751    1.00   0.00  0.00  0.00  0.88  0.12  0.00  0.00  0.71  0.00
  YS02001751YS02001754    1.00   0.00  0.00  0.00  0.24  0.01  0.00  0.75  0.04  0.00
  YS02001754YS02001757    1.00   0.00  0.00  0.00  1.00  0.00  0.00  0.00  0.74  0.00
  YS02001757CaochengTiaoxuchi    1.00   0.00  0.00  0.00  0.97  0.03  0.00  0.00  0.61  0.00
  YS02001759YS02001757    1.00   0.00  0.00  0.00  0.98  0.02  0.00  0.00  0.51  0.00
  YS02001762YS02001759    1.00   0.00  0.00  0.00  1.00  0.00  0.00  0.00  0.03  0.00
  YS02001765YS02001762    1.00   0.00  0.00  0.00  1.00  0.00  0.00  0.00  0.62  0.00
  YS02001767YS02001765    1.00   0.00  0.00  0.00  1.00  0.00  0.00  0.00  0.01  0.00
  YS02001770YS02001767    1.00   0.00  0.00  0.00  1.00  0.00  0.00  0.00  0.00  0.00
  YS02001774YS02001770    1.00   0.00  0.13  0.00  0.71  0.00  0.16  0.00  0.02  0.00
  YS02001779YS02001774    1.00   0.00  0.00  0.00  1.00  0.00  0.00  0.00  0.70  0.00
  YS02001783YS02001784    1.00   0.00  0.16  0.00  0.84  0.00  0.00  0.00  0.54  0.00
  YS02001784YS02001785    1.00   0.00  0.00  0.00  1.00  0.00  0.00  0.00  0.15  0.00
  YS02001786YS02001788    1.00   0.00  0.00  0.00  0.80  0.20  0.00  0.00  0.00  0.00
  YS02001788YS02001790    1.00   0.00  0.00  0.00  0.21  0.79  0.00  0.00  0.77  0.00
  YS02001790YS02001791    1.00   0.00  0.00  0.00  0.01  0.99  0.00  0.00  0.15  0.00
  YS02001791YS02001793    1.00   0.00  0.00  0.00  0.00  1.00  0.00  0.00  0.02  0.00
  YS02001793JiankangQianchi    1.00   0.00  0.00  0.00  0.96  0.04  0.00  0.00  0.94  0.00
  YS02001882YS02001884    1.00   0.14  0.00  0.00  0.85  0.00  0.00  0.00  0.00  0.00
  YS02001884YS02001887    1.00   0.06  0.05  0.00  0.89  0.00  0.00  0.00  0.00  0.00
  YS02001887YS02001890    1.00   0.00  0.00  0.00  0.97  0.00  0.03  0.00  0.00  0.00
  YS02001890YS02001895    1.00   0.00  0.15  0.00  0.85  0.00  0.00  0.00  0.00  0.00
  YS02001895YS02001898    1.00   0.15  0.00  0.00  0.84  0.00  0.01  0.00  0.00  0.00
  YS02001898YS02001901    1.00   0.15  0.00  0.00  0.85  0.00  0.00  0.00  0.00  0.00
  YS02001901YS02001904    1.00   0.15  0.00  0.00  0.85  0.00  0.00  0.00  0.00  0.00
  YS02001904YS02001907    1.00   0.00  0.15  0.00  0.85  0.00  0.00  0.00  0.00  0.00
  YS02001907YS02006553    1.00   0.00  0.02  0.00  0.98  0.00  0.00  0.00  0.00  0.00
  YS02001910YS02001907    1.00   0.00  0.00  0.00  0.97  0.00  0.00  0.03  0.11  0.00
  YS02001915YS02001910    1.00   0.00  0.00  0.00  0.97  0.03  0.00  0.00  0.12  0.00
  YS02001918YS02001915    1.00   0.00  0.01  0.00  0.98  0.02  0.00  0.00  0.68  0.00
  YS02001920YS02001918    1.00   0.00  0.01  0.00  0.99  0.00  0.00  0.00  0.00  0.00
  YS02001923YS02001920    1.00   0.00  0.00  0.00  1.00  0.00  0.00  0.00  0.88  0.00
  YS02001926YS02001923    1.00   0.00  0.07  0.00  0.10  0.00  0.83  0.00  0.00  0.00
  YS02001929YS02001926    1.00   0.00  0.13  0.00  0.87  0.00  0.00  0.00  0.78  0.00
  YS02006553YS02006556    1.00   0.01  0.00  0.00  0.99  0.00  0.00  0.00  0.03  0.00
  YS02006556YS02006558    1.00   0.00  0.00  0.00  1.00  0.00  0.00  0.00  0.00  0.00
  YS02006558YS02006561    1.00   0.16  0.00  0.00  0.09  0.75  0.00  0.00  0.16  0.00
  YS02006561YS02001783    1.00   0.16  0.00  0.00  0.14  0.70  0.00  0.00  0.64  0.00
  YS02163301YS02001633    1.00   0.00  0.14  0.00  0.86  0.00  0.00  0.00  0.00  0.00
  YS02163601YS02164001    1.00   0.00  0.08  0.00  0.92  0.00  0.00  0.00  0.00  0.00
  YS02164001YS02001641    1.00   0.01  0.07  0.00  0.92  0.00  0.00  0.00  0.05  0.00
  
  
  *************************
  Conduit Surcharge Summary
  *************************
  
  ----------------------------------------------------------------------------
                                                           Hours        Hours 
                         --------- Hours Full --------   Above Full   Capacity
  Conduit                Both Ends  Upstream  Dnstream   Normal Flow   Limited
  ----------------------------------------------------------------------------
  WS02003072WS02003073        0.01      0.01      0.01      1.23         0.01
  WS02004403WS02004404        0.01      0.01      0.01      0.01         0.01
  WS02004404WS02004405        0.01      0.01      0.01      4.35         0.01
  WS02004405WS02004406        0.01      0.01      0.01      0.46         0.01
  WS02006109WS02006110        0.61      0.61      2.72      0.73         0.01
  WS02006110WS02006113        0.01      0.01      2.64      0.01         0.01
  WS02006111WS02006112        0.01      0.01      3.50      0.01         0.01
  WS02006112WS02006115        0.01      0.01      0.75      0.01         0.01
  WS02006228WS02006109        2.56      2.72      2.56      3.85         2.56
  WS02006229WS02006228        2.55      2.58      2.55      3.25         2.54
  WS02006230WS02006229        2.86      3.15      2.86      4.86         2.86
  WS02006231WS02006230        0.64      0.64      0.80      4.60         0.01
  WS02006232WS02006231        0.75      0.75      2.73      0.82         0.01
  WS02006234WS02006232        2.47      2.47      2.73      0.80         0.81
  WS02006235WS02006234        1.10      1.11      2.54      4.46         0.01
  WS02006238WS02006235        2.58      2.58      2.75      0.01         0.01
  WS02006239WS02006238        2.64      2.71      2.64      3.08         2.45
  WS02006240WS02006239        2.58      2.62      2.58      3.07         2.33
  WS02006242WS02006240        2.60      2.60      2.87      3.38         0.01
  WS02006243WS02006242        2.64      2.64      2.77      0.01         0.04
  WS02006245WS02006243        2.62      2.64      2.63      2.47         2.03
  WS02006247WS02006245        2.62      2.68      2.62      4.10         2.61
  WS02006248WS02006247        2.62      2.62      2.66      0.01         0.05
  WS02006249WS02006248        2.60      2.60      2.64      4.08         0.01
  WS02006251WS02006249        2.63      2.65      2.64      3.20         2.55
  WS02006252WS02006251        3.29      3.29      3.31      3.29         0.01
  WS02006256WS02006235        4.47      4.50      7.16      1.13         0.01
  YS02001580YS02001583        1.04      1.04      1.13      0.01         0.01
  YS02001583YS02001586        1.05      1.05      1.26      0.01         0.01
  YS02001586YS02001590        1.27      1.27      1.35      0.01         0.01
  YS02001590YS02001593        1.35      1.35      1.37      1.35         0.01
  YS02001593YS02001596        1.37      1.37      1.46      0.01         0.01
  YS02001596YS02001600        1.51      1.51      1.60      0.01         0.01
  YS02001600YS02001601        1.64      1.64      1.87      0.01         0.01
  YS02001601YS02001602        1.79      1.79      1.90      1.59         0.01
  YS02001602YS02001605        1.75      1.75      1.79      2.57         0.01
  YS02001605YS02001607        1.71      1.75      1.73      1.80         1.68
  YS02001607YS02001610        1.35      1.35      1.38      0.01         0.01
  YS02001610YS02001613        1.35      1.35      1.38      0.01         0.01
  YS02001613YS02001616        1.32      1.32      1.35      0.01         0.01
  YS02001616YS02001619        1.31      1.31      1.32      0.19         0.16
  YS02001619YS02001622        1.31      1.31      1.31      1.28         1.13
  YS02001622YS02001625        1.31      1.31      1.46      0.01         0.01
  YS02001625YS02001629        1.26      1.26      1.46      0.01         0.01
  YS02001629YS02163301        1.47      1.47      1.48      0.14         0.14
  YS02001633YS02163601        1.51      1.51      1.55      0.14         0.20
  YS02001641YS02001644        1.43      1.46      1.43      1.94         1.40
  YS02001644YS02001647        1.24      1.24      1.43      0.01         0.01
  YS02001647YS02001649        1.24      1.24      1.36      0.01         0.01
  YS02001649YS02001757        1.36      1.36      1.43      0.12         0.06
  YS02001652YS02001649        1.22      1.22      1.36      0.01         0.01
  YS02001655YS02001652        0.99      0.99      1.20      0.01         0.01
  YS02001658YS02001655        0.57      0.57      0.99      0.01         0.01
  YS02001661YS02001658        0.20      0.20      0.57      0.01         0.01
  YS02001664YS02001661        0.01      0.01      0.26      0.01         0.01
  YS02001745YS02001748        0.03      0.03      0.45      0.01         0.01
  YS02001748YS02001751        0.54      0.54      0.85      0.01         0.01
  YS02001751YS02001754        0.85      0.85      1.14      0.01         0.01
  YS02001754YS02001757        1.18      1.18      1.43      0.01         0.01
  YS02001757CaochengTiaoxuchi        1.43      1.43      2.30      0.51         0.51
  YS02001759YS02001757        1.35      1.35      1.43      0.01         0.01
  YS02001762YS02001759        1.32      1.32      1.35      0.01         0.02
  YS02001765YS02001762        1.28      1.28      1.32      0.01         0.01
  YS02001767YS02001765        1.25      1.25      1.28      0.01         0.02
  YS02001770YS02001767        1.25      1.25      1.25      0.80         0.78
  YS02001774YS02001770        1.23      1.23      1.30      0.01         0.01
  YS02001779YS02001774        1.11      1.11      1.30      0.01         0.01
  YS02001783YS02001784        0.83      0.87      0.83      1.09         0.83
  YS02001784YS02001785        0.70      0.83      0.70      1.45         0.70
  YS02001786YS02001788        0.01      0.70      0.01      1.25         0.01
  YS02001790YS02001791        0.01      0.01      0.01      0.81         0.01
  YS02001793JiankangQianchi        0.01      0.01      7.66      0.01         0.01
  YS02001882YS02001884        0.79      0.79      0.80      0.01         0.01
  YS02001884YS02001887        0.83      0.83      0.85      0.01         0.01
  YS02001887YS02001890        0.87      0.87      0.89      0.26         0.01
  YS02001890YS02001895        0.78      0.78      0.91      0.01         0.01
  YS02001895YS02001898        0.77      0.77      0.78      0.01         0.01
  YS02001898YS02001901        0.78      0.78      0.83      0.01         0.01
  YS02001901YS02001904        0.82      0.82      0.83      0.01         0.01
  YS02001904YS02001907        0.82      0.82      1.22      0.01         0.01
  YS02001907YS02006553        1.47      1.47      1.53      0.01         0.01
  YS02001910YS02001907        0.91      0.91      1.18      0.14         0.14
  YS02001915YS02001910        0.79      0.79      0.91      0.01         0.01
  YS02001918YS02001915        0.67      0.67      0.79      0.01         0.01
  YS02001920YS02001918        0.67      0.67      0.69      0.01         0.01
  YS02001923YS02001920        0.62      0.62      0.69      0.01         0.01
  YS02001926YS02001923        0.28      0.28      0.32      0.08         0.01
  YS02001929YS02001926        0.16      0.16      0.32      0.01         0.01
  YS02006553YS02006556        1.04      1.04      1.22      0.01         0.01
  YS02006556YS02006558        1.12      1.12      1.25      0.01         0.01
  YS02006558YS02006561        0.72      1.02      0.72      1.38         0.72
  YS02006561YS02001783        0.64      0.64      0.87      0.01         0.01
  YS02163301YS02001633        1.48      1.48      1.52      0.01         0.01
  YS02163601YS02164001        1.46      1.46      1.55      0.10         0.01
  YS02164001YS02001641        1.45      1.46      1.46      0.84         0.77
  
  
  ***************
  Pumping Summary
  ***************
  
  ---------------------------------------------------------------------------------------------------------
                                                  Min       Avg       Max     Total     Power    % Time Off
                        Percent   Number of      Flow      Flow      Flow    Volume     Usage    Pump Curve
  Pump                 Utilized   Start-Ups       LPS       LPS       LPS  10^6 ltr     Kw-hr    Low   High
  ---------------------------------------------------------------------------------------------------------
  CC-R1                   24.69           3      0.00    683.00    683.00     4.856     94.27    0.0    7.7
  CC-R2                   21.60           4      0.00    683.00    683.00     4.249     83.11    0.0    9.0
  CC-S1                   50.70          14      0.00    200.00    200.00     2.920     16.50    0.0    0.0
  CC-S2                   42.90          23      0.00    200.00    200.00     2.471     13.77    0.0    0.0
  JK-R1                    9.39          13      0.00   1000.00   1000.00     2.705     29.50    0.0    0.0
  JK-R2                    5.64          13      0.00   1000.00   1000.00     1.625     15.44    0.0    0.0
  JK-S                    14.03          14      0.00    300.00    300.00     1.212     18.49    0.0    0.0
  

  Analysis begun on:  Wed Jan 15 10:41:00 2025
  Analysis ended on:  Wed Jan 15 10:41:01 2025
  Total elapsed time: 00:00:01