
  EPA STORM WATER MANAGEMENT MODEL - VERSION 5.2 (Build 5.2.4)
  PYSWMM TOOLKIT API - VERSION v1.0 (2023-11-27)
  ------------------------------------------------------------

  WARNING 04: minimum elevation drop used for Conduit WS02004404WS02004405
  WARNING 03: negative offset ignored for Link YS02001904YS02001907
  
  ****************
  Analysis Options
  ****************
  Flow Units ............... LPS
  Process Models:
    Rainfall/Runoff ........ YES
    RDII ................... NO
    Snowmelt ............... NO
    Groundwater ............ NO
    Flow Routing ........... YES
    Ponding Allowed ........ NO
    Water Quality .......... NO
  Infiltration Method ...... HORTON
  Flow Routing Method ...... DYNWAVE
  Surcharge Method ......... EXTRAN
  Starting Date ............ 08/28/2015 08:00:00
  Ending Date .............. 08/28/2015 16:00:00
  Antecedent Dry Days ...... 8.0
  Report Time Step ......... 00:01:00
  Wet Time Step ............ 00:01:00
  Dry Time Step ............ 00:01:00
  Routing Time Step ........ 30.00 sec
  Variable Time Step ....... YES
  Maximum Trials ........... 8
  Number of Threads ........ 4
  Head Tolerance ........... 0.001500 m
  
  
  **************************        Volume         Depth
  Runoff Quantity Continuity     hectare-m            mm
  **************************     ---------       -------
  Total Precipitation ......         3.137        94.582
  Evaporation Loss .........         0.000         0.000
  Infiltration Loss ........         0.104         3.150
  Surface Runoff ...........         3.000        90.454
  Final Storage ............         0.033         0.996
  Continuity Error (%) .....        -0.018
  
  
  **************************        Volume        Volume
  Flow Routing Continuity        hectare-m      10^6 ltr
  **************************     ---------     ---------
  Dry Weather Inflow .......         0.025         0.251
  Wet Weather Inflow .......         3.001        30.007
  Groundwater Inflow .......         0.000         0.000
  RDII Inflow ..............         0.000         0.000
  External Inflow ..........         0.083         0.834
  External Outflow .........         1.948        19.481
  Flooding Loss ............         1.226        12.257
  Evaporation Loss .........         0.000         0.000
  Exfiltration Loss ........         0.000         0.000
  Initial Stored Volume ....         0.243         2.431
  Final Stored Volume ......         0.186         1.857
  Continuity Error (%) .....        -0.218
  
  
  *************************
  Highest Continuity Errors
  *************************
  Node YS02001884 (4.95%)
  Node YS02001583 (-3.81%)
  
  
  ***************************
  Time-Step Critical Elements
  ***************************
  Link WS02006252WS02006251 (65.20%)
  Link WS02004404WS02004405 (7.17%)
  Link YS02001791YS02001793 (6.19%)
  Link WS02006238WS02006235 (6.05%)
  Link WS02006235WS02006234 (5.91%)
  
  
  ********************************
  Highest Flow Instability Indexes
  ********************************
  Link WS02006113WS02006111 (55)
  Link WS02006111WS02006112 (30)
  Link WS02006238WS02006235 (14)
  Link WS02006256WS02006235 (12)
  Link WS02006252WS02006251 (11)
  
  
  *********************************
  Most Frequent Nonconverging Nodes
  *********************************
  Node CC-1 (10.16%)
  Node CC-2 (10.16%)
  Node JK-1 (10.16%)
  Node JK-2 (10.16%)
  Node WSC (10.16%)
  
  
  *************************
  Routing Time Step Summary
  *************************
  Minimum Time Step           :     0.01 sec
  Average Time Step           :     1.48 sec
  Maximum Time Step           :     7.04 sec
  % of Time in Steady State   :     0.00
  Average Iterations per Step :     2.91
  % of Steps Not Converging   :    10.16
  Time Step Frequencies       :
     30.000 - 13.228 sec      :     0.00 %
     13.228 -  5.833 sec      :     5.48 %
      5.833 -  2.572 sec      :    10.70 %
      2.572 -  1.134 sec      :    15.23 %
      1.134 -  0.500 sec      :    68.58 %
  
  
  ***************************
  Subcatchment Runoff Summary
  ***************************
  
  ------------------------------------------------------------------------------------------------------------------------------
                            Total      Total      Total      Total     Imperv       Perv      Total       Total     Peak  Runoff
                           Precip      Runon       Evap      Infil     Runoff     Runoff     Runoff      Runoff   Runoff   Coeff
  Subcatchment                 mm         mm         mm         mm         mm         mm         mm    10^6 ltr      LPS
  ------------------------------------------------------------------------------------------------------------------------------
  sub60                     94.58       0.00       0.00       1.89      82.03       9.47      91.50        1.20   742.62   0.967
  sub61                     94.58       0.00       0.00       2.73      77.38      13.35      90.72        1.66  1032.42   0.959
  sub62                     94.58       0.00       0.00       1.26      85.73       6.31      92.04        2.52  1473.36   0.973
  sub63                     94.58       0.00       0.00       5.05      66.19      22.39      88.57        2.01  1189.06   0.936
  sub64                     94.58       0.00       0.00       2.55      79.19      11.64      90.83        2.18  1219.11   0.960
  sub65                     94.58       0.00       0.00       2.21      81.03      10.09      91.12        2.51  1365.05   0.963
  sub66                     94.58       0.00       0.00       6.26      66.08      21.18      87.25        4.07  1864.38   0.923
  sub67                     94.58       0.00       0.00       1.21      85.78       6.36      92.14        1.71  1108.90   0.974
  sub68                     94.58       0.00       0.00       2.27      80.16      10.98      91.14        2.51  1506.35   0.964
  sub69                     94.58       0.00       0.00       2.04      80.29      12.15      92.43        3.42  1813.93   0.977
  sub70                     94.58       0.00       0.00       6.82      62.26      25.34      87.60        2.53  1051.62   0.926
  sub71                     94.58       0.00       0.00       1.29      85.69       6.28      91.97        2.40  1315.29   0.972
  sub72                     94.58       0.00       0.00       1.15      86.56       5.47      92.03        1.27   647.12   0.973
  
  
  ******************
  Node Depth Summary
  ******************
  
  ---------------------------------------------------------------------------------
                                 Average  Maximum  Maximum  Time of Max    Reported
                                   Depth    Depth      HGL   Occurrence   Max Depth
  Node                 Type       Meters   Meters   Meters  days hr:min      Meters
  ---------------------------------------------------------------------------------
  WS02003060           JUNCTION     0.26     0.38     5.32     0  02:57        0.38
  WS02003066           JUNCTION     0.21     0.30     5.85     0  02:57        0.30
  WS02003067           JUNCTION     0.54     0.70     6.02     0  02:56        0.70
  WS02003069           JUNCTION     0.28     0.43     5.01     0  02:58        0.43
  WS02003072           JUNCTION     0.35     0.50     4.87     0  02:58        0.50
  WS02003073           JUNCTION     0.20     0.30     4.36     0  02:56        0.30
  WS02004401           JUNCTION     0.62     0.85     6.85     0  02:54        0.85
  WS02004402           JUNCTION     0.65     0.88     6.84     0  02:54        0.88
  WS02004403           JUNCTION     0.67     0.89     6.82     0  02:54        0.89
  WS02004404           JUNCTION     0.75     0.96     6.81     0  02:54        0.96
  WS02004405           JUNCTION     0.75     0.96     6.81     0  02:54        0.96
  WS02004406           JUNCTION     0.76     0.96     6.79     0  02:55        0.96
  WS02004407           JUNCTION     0.20     0.30     6.61     0  02:55        0.30
  WS02004409           JUNCTION     0.43     0.67     6.44     0  02:55        0.67
  WS02004410           JUNCTION     0.45     0.68     6.40     0  02:55        0.68
  WS02004411           JUNCTION     0.47     0.69     6.37     0  02:56        0.69
  WS02004412           JUNCTION     0.49     0.70     6.34     0  02:56        0.70
  WS02004413           JUNCTION     0.66     0.86     6.33     0  02:56        0.86
  WS02006109           JUNCTION     0.68     1.19     7.80     0  01:59        0.98
  WS02006110           JUNCTION     0.69     1.18     7.77     0  01:59        0.93
  WS02006111           JUNCTION     0.19     0.29     7.00     0  01:59        0.29
  WS02006112           JUNCTION     0.78     1.07     6.95     0  02:28        1.06
  WS02006113           JUNCTION     0.29     0.46     7.35     0  01:59        0.46
  WS02006115           JUNCTION     0.50     0.75     6.89     0  02:53        0.75
  WS02006116           JUNCTION     0.59     0.83     6.87     0  02:54        0.83
  WS02006228           JUNCTION     0.68     1.24     7.89     0  01:59        1.24
  WS02006229           JUNCTION     0.65     1.34     8.04     0  01:42        1.34
  WS02006230           JUNCTION     0.64     1.43     8.17     0  01:59        1.17
  WS02006231           JUNCTION     0.45     1.31     8.44     0  01:59        1.31
  WS02006232           JUNCTION     0.59     1.85     8.89     0  01:59        1.85
  WS02006234           JUNCTION     0.51     1.96     9.12     0  01:59        1.96
  WS02006235           JUNCTION     0.55     2.00     9.16     0  01:59        2.00
  WS02006238           JUNCTION     0.58     2.15     9.29     0  01:59        2.15
  WS02006239           JUNCTION     0.55     2.03     9.24     0  01:59        2.03
  WS02006240           JUNCTION     0.51     2.07     9.37     0  01:59        2.07
  WS02006242           JUNCTION     0.58     1.55     8.82     0  01:42        1.55
  WS02006243           JUNCTION     0.48     1.48     8.90     0  01:59        1.48
  WS02006245           JUNCTION     0.48     1.46     8.94     0  01:59        1.46
  WS02006247           JUNCTION     0.50     1.28     8.78     0  01:58        1.28
  WS02006248           JUNCTION     0.46     1.10     8.69     0  01:42        1.10
  WS02006249           JUNCTION     0.49     1.09     8.69     0  01:41        1.09
  WS02006251           JUNCTION     0.49     1.45     9.12     0  01:41        1.26
  WS02006252           JUNCTION     0.37     1.50     9.74     0  00:00        0.82
  WS02006256           JUNCTION     1.00     2.35     9.28     0  00:00        2.35
  WSF200               JUNCTION     0.19     0.29     5.52     0  02:57        0.29
  YS02001580           JUNCTION     0.10     1.05     9.59     0  01:46        0.77
  YS02001583           JUNCTION     0.14     1.14     9.64     0  01:46        0.97
  YS02001586           JUNCTION     0.20     1.13     9.30     0  01:46        1.13
  YS02001590           JUNCTION     0.29     1.40     9.26     0  01:47        1.40
  YS02001593           JUNCTION     0.23     1.38     9.25     0  01:47        1.38
  YS02001596           JUNCTION     0.31     1.80     9.22     0  01:59        1.80
  YS02001600           JUNCTION     0.36     1.87     9.00     0  01:47        1.87
  YS02001601           JUNCTION     0.55     2.06     8.90     0  01:46        2.06
  YS02001602           JUNCTION     0.46     1.87     8.77     0  01:46        1.87
  YS02001605           JUNCTION     0.43     1.78     8.68     0  01:46        1.78
  YS02001607           JUNCTION     0.43     1.68     8.53     0  01:59        1.68
  YS02001610           JUNCTION     0.48     1.68     8.48     0  01:46        1.68
  YS02001613           JUNCTION     0.43     1.69     8.53     0  01:46        1.67
  YS02001616           JUNCTION     0.36     1.61     8.52     0  01:46        1.61
  YS02001619           JUNCTION     0.34     1.61     8.54     0  01:58        1.61
  YS02001622           JUNCTION     0.33     1.62     8.52     0  01:59        1.62
  YS02001625           JUNCTION     0.61     1.78     8.38     0  01:51        1.78
  YS02001629           JUNCTION     0.44     1.85     8.40     0  01:52        1.85
  YS02001633           JUNCTION     0.53     2.08     8.53     0  01:59        2.08
  YS02001641           JUNCTION     0.51     2.09     8.53     0  02:32        2.09
  YS02001644           JUNCTION     0.51     1.92     8.35     0  01:53        1.92
  YS02001647           JUNCTION     0.30     1.78     8.39     0  02:00        1.78
  YS02001649           JUNCTION     0.34     2.05     8.44     0  01:59        2.05
  YS02001652           JUNCTION     0.24     2.16     8.76     0  01:53        2.16
  YS02001655           JUNCTION     0.19     2.20     9.05     0  01:53        2.10
  YS02001658           JUNCTION     0.14     1.76     8.90     0  01:59        1.76
  YS02001661           JUNCTION     0.16     1.28     8.69     0  02:00        1.28
  YS02001664           JUNCTION     0.06     0.78     8.71     0  02:01        0.78
  YS02001745           JUNCTION     0.07     0.94     8.46     0  02:01        0.94
  YS02001748           JUNCTION     0.13     1.76     8.84     0  01:56        1.37
  YS02001751           JUNCTION     0.16     1.86     8.74     0  01:54        1.54
  YS02001754           JUNCTION     0.22     1.88     8.48     0  01:54        1.80
  YS02001757           JUNCTION     0.36     2.11     8.37     0  02:00        2.11
  YS02001759           JUNCTION     0.31     2.19     8.55     0  01:59        2.19
  YS02001762           JUNCTION     0.30     2.15     8.55     0  02:09        2.10
  YS02001765           JUNCTION     0.28     2.10     8.55     0  02:09        2.02
  YS02001767           JUNCTION     0.28     2.03     8.52     0  02:09        1.96
  YS02001770           JUNCTION     0.29     1.95     8.44     0  01:52        1.95
  YS02001774           JUNCTION     0.35     2.05     8.47     0  01:52        2.00
  YS02001779           JUNCTION     0.20     1.68     8.37     0  01:52        1.68
  YS02001783           JUNCTION     0.23     1.44     7.58     0  01:51        1.24
  YS02001784           JUNCTION     0.24     1.24     7.30     0  01:51        1.12
  YS02001786           JUNCTION     0.21     0.95     6.98     0  01:59        0.88
  YS02001788           JUNCTION     0.15     0.63     6.60     0  01:59        0.62
  YS02001790           JUNCTION     0.17     0.73     6.37     0  01:58        0.73
  YS02001791           JUNCTION     0.11     0.44     5.91     0  02:03        0.43
  YS02001793           JUNCTION     0.06     0.30     5.14     0  02:06        0.28
  YS02001882           JUNCTION     0.31     1.79     8.51     0  01:59        1.79
  YS02001884           JUNCTION     0.40     1.90     8.52     0  01:59        1.90
  YS02001887           JUNCTION     0.48     2.00     8.54     0  01:59        2.00
  YS02001890           JUNCTION     0.51     1.81     8.32     0  01:49        1.81
  YS02001895           JUNCTION     0.27     1.57     8.32     0  01:51        1.57
  YS02001898           JUNCTION     0.28     1.57     8.31     0  01:51        1.56
  YS02001901           JUNCTION     0.40     1.71     8.32     0  01:59        1.71
  YS02001904           JUNCTION     0.38     1.70     8.33     0  01:59        1.70
  YS02001907           JUNCTION     0.71     1.96     8.25     0  01:51        1.96
  YS02001910           JUNCTION     0.51     2.05     8.56     0  01:59        2.05
  YS02001915           JUNCTION     0.31     2.00     8.72     0  01:59        2.00
  YS02001918           JUNCTION     0.18     1.81     8.88     0  01:51        1.75
  YS02001920           JUNCTION     0.25     2.13     9.14     0  01:52        1.81
  YS02001923           JUNCTION     0.14     2.03     9.29     0  01:52        1.55
  YS02001926           JUNCTION     0.16     1.90     9.35     0  01:52        1.38
  YS02001929           JUNCTION     0.09     1.78     9.47     0  01:52        1.15
  YS02006553           JUNCTION     0.71     2.08     8.36     0  01:59        2.08
  YS02006556           JUNCTION     0.68     2.39     8.70     0  01:59        2.39
  YS02006558           JUNCTION     0.73     2.50     8.77     0  01:59        2.50
  YS02006561           JUNCTION     0.15     1.21     7.87     0  01:51        0.91
  YS02163301           JUNCTION     0.47     1.94     8.46     0  02:00        1.94
  YS02163601           JUNCTION     0.57     2.08     8.48     0  01:55        2.08
  YS02164001           JUNCTION     0.50     2.10     8.56     0  02:32        2.10
  CC-1                 OUTFALL      0.00     0.00     0.00     0  00:00        0.00
  CC-2                 OUTFALL      0.00     0.00     0.00     0  00:00        0.00
  JK-1                 OUTFALL      0.00     0.00     0.00     0  00:00        0.00
  JK-2                 OUTFALL      0.00     0.00     0.00     0  00:00        0.00
  WSC                  OUTFALL      0.20     0.30     0.97     0  02:57        0.30
  CC-storage           STORAGE      0.87     1.83     7.33     0  02:38        1.83
  JK-storage           STORAGE      2.92     4.23     5.03     0  02:27        4.18
  
  
  *******************
  Node Inflow Summary
  *******************
  
  -------------------------------------------------------------------------------------------------
                                  Maximum  Maximum                  Lateral       Total        Flow
                                  Lateral    Total  Time of Max      Inflow      Inflow     Balance
                                   Inflow   Inflow   Occurrence      Volume      Volume       Error
  Node                 Type           LPS      LPS  days hr:min    10^6 ltr    10^6 ltr     Percent
  -------------------------------------------------------------------------------------------------
  WS02003060           JUNCTION     16.53   553.89     0  02:57       0.476        6.65       0.030
  WS02003066           JUNCTION      0.00   537.22     0  02:57           0        6.18       0.020
  WS02003067           JUNCTION      0.00   537.18     0  02:56           0        6.18       0.066
  WS02003069           JUNCTION      0.32   554.05     0  02:57     0.00922        6.66       0.054
  WS02003072           JUNCTION      0.00   553.68     0  02:58           0        6.65       0.097
  WS02003073           JUNCTION      1.82   555.28     0  02:59      0.0524         6.7       0.076
  WS02004401           JUNCTION      0.00   541.14     0  02:54           0        6.28       0.158
  WS02004402           JUNCTION      0.00   540.37     0  02:54           0        6.27       0.161
  WS02004403           JUNCTION      0.00   539.38     0  02:54           0        6.26       0.158
  WS02004404           JUNCTION      0.16   539.71     0  02:54     0.00467        6.25       0.132
  WS02004405           JUNCTION      0.04   539.54     0  02:54      0.0011        6.24       0.197
  WS02004406           JUNCTION      0.00   539.20     0  02:54           0        6.23       0.326
  WS02004407           JUNCTION      0.00   538.87     0  02:55           0        6.21       0.015
  WS02004409           JUNCTION      0.00   538.45     0  02:55           0        6.21       0.038
  WS02004410           JUNCTION      0.00   538.15     0  02:55           0        6.21       0.064
  WS02004411           JUNCTION      0.00   537.83     0  02:55           0         6.2       0.084
  WS02004412           JUNCTION      0.00   537.72     0  02:56           0         6.2       0.114
  WS02004413           JUNCTION      0.00   537.56     0  02:56           0        6.19       0.205
  WS02006109           JUNCTION      1.23   577.29     0  01:42      0.0354        6.32       0.153
  WS02006110           JUNCTION      0.00   572.81     0  01:42           0        6.31       0.100
  WS02006111           JUNCTION      0.00   569.17     0  01:59           0        6.31       0.007
  WS02006112           JUNCTION      0.00   547.27     0  01:59           0        6.31       0.278
  WS02006113           JUNCTION      0.00   591.84     0  01:59           0        6.31       0.030
  WS02006115           JUNCTION      0.00   552.40     0  02:29           0        6.29       0.098
  WS02006116           JUNCTION      0.00   542.55     0  02:54           0        6.28       0.082
  WS02006228           JUNCTION      0.00   575.01     0  01:42           0        6.29       0.070
  WS02006229           JUNCTION      0.00   571.58     0  01:42           0         6.3       0.055
  WS02006230           JUNCTION     10.28   584.50     0  02:27       0.296         6.3       0.055
  WS02006231           JUNCTION      0.00   570.78     0  03:10           0           6       0.008
  WS02006232           JUNCTION      0.00   569.67     0  03:10           0        6.01       0.090
  WS02006234           JUNCTION      0.00   565.46     0  03:10           0           6      -0.107
  WS02006235           JUNCTION      0.00   559.46     0  02:27           0        6.05       0.084
  WS02006238           JUNCTION      0.00   424.38     0  03:21           0        5.04      -0.136
  WS02006239           JUNCTION      0.00   425.22     0  03:21           0        5.01      -0.108
  WS02006240           JUNCTION      0.00   425.92     0  03:21           0        4.98      -0.044
  WS02006242           JUNCTION      0.00   425.32     0  03:21           0        4.97      -0.020
  WS02006243           JUNCTION      0.00   424.50     0  03:21           0        4.96      -0.102
  WS02006245           JUNCTION      0.00   423.55     0  03:21           0        4.97       0.153
  WS02006247           JUNCTION      0.00   424.71     0  03:21           0        4.97       0.009
  WS02006248           JUNCTION      0.00   426.66     0  03:21           0        4.97       0.021
  WS02006249           JUNCTION      0.00   459.02     0  00:00           0        5.23       0.129
  WS02006251           JUNCTION      0.08   407.34     0  01:41     0.00222        5.23       0.002
  WS02006252           JUNCTION      0.00   400.00     0  00:00           0        5.22      -0.069
  WS02006256           JUNCTION      0.00   300.00     0  00:00           0         1.5      -0.518
  WSF200               JUNCTION      0.00   537.28     0  02:57           0        6.17       0.006
  YS02001580           JUNCTION      0.00    77.38     0  01:46           0     0.00421       0.976
  YS02001583           JUNCTION      0.00   128.76     0  01:46           0      0.0157      -3.675
  YS02001586           JUNCTION   1051.62  1051.64     0  02:04        2.53        2.54       0.037
  YS02001590           JUNCTION      0.00   318.30     0  01:59           0        1.69      -0.029
  YS02001593           JUNCTION      0.00   318.12     0  02:29           0        1.69      -0.009
  YS02001596           JUNCTION      0.00   318.15     0  02:25           0        1.69      -0.012
  YS02001600           JUNCTION      0.00   319.40     0  01:59           0        1.69       0.006
  YS02001601           JUNCTION   1813.93  2131.57     0  02:02        3.42        5.12       0.006
  YS02001602           JUNCTION      0.00   501.61     0  01:46           0        2.73       0.015
  YS02001605           JUNCTION      0.00   501.75     0  01:46           0        2.55       0.024
  YS02001607           JUNCTION      0.00   501.88     0  01:46           0        2.55       0.074
  YS02001610           JUNCTION      0.00   953.54     0  02:06           0        3.14       0.062
  YS02001613           JUNCTION      0.00   616.86     0  02:06           0        2.41       0.061
  YS02001616           JUNCTION      0.00   616.90     0  02:06           0        2.41       0.011
  YS02001619           JUNCTION   1864.38  1864.38     0  02:03        4.07        5.89      -0.004
  YS02001622           JUNCTION      0.00  1053.94     0  02:07           0        5.23      -0.002
  YS02001625           JUNCTION      0.00  1505.01     0  02:07           0        5.66       0.166
  YS02001629           JUNCTION      0.00   927.77     0  01:51           0        4.07       0.010
  YS02001633           JUNCTION   1365.25  1365.28     0  01:51        2.51        6.04       0.054
  YS02001641           JUNCTION      0.00  1364.00     0  01:51           0         5.5       0.046
  YS02001644           JUNCTION   1219.15  1999.24     0  02:02        2.18        7.69       0.037
  YS02001647           JUNCTION      0.00  1757.22     0  01:51           0        6.52       0.001
  YS02001649           JUNCTION      0.00  1996.85     0  01:52           0        8.53      -0.001
  YS02001652           JUNCTION      0.00  1201.58     0  02:01           0        2.02      -0.058
  YS02001655           JUNCTION      0.15  1201.85     0  02:01     0.00443        2.02      -0.082
  YS02001658           JUNCTION      0.00  1202.11     0  02:01           0        2.02      -0.037
  YS02001661           JUNCTION      0.00  1201.88     0  02:01           0        2.02       0.013
  YS02001664           JUNCTION   1189.06  1189.06     0  02:02        2.01        2.01      -0.006
  YS02001745           JUNCTION    742.62   742.62     0  02:02         1.2         1.2       0.139
  YS02001748           JUNCTION      0.04   758.61     0  02:01      0.0013         1.2      -0.216
  YS02001751           JUNCTION      0.01   759.30     0  02:01    0.000317        1.21       0.057
  YS02001754           JUNCTION      0.26   760.33     0  02:01     0.00749        1.22      -0.120
  YS02001757           JUNCTION      0.00  3350.05     0  01:56           0        13.4       0.030
  YS02001759           JUNCTION   1032.46  1413.63     0  02:01        1.67        3.65      -0.012
  YS02001762           JUNCTION      0.00   773.24     0  01:56           0        1.98      -0.004
  YS02001765           JUNCTION      0.00   774.06     0  01:56           0        1.98       0.003
  YS02001767           JUNCTION      0.54   774.66     0  01:56      0.0154        1.98       0.005
  YS02001770           JUNCTION   1473.51  1473.51     0  02:02        2.53        2.57      -0.012
  YS02001774           JUNCTION      0.00   850.89     0  02:04           0       0.587       0.188
  YS02001779           JUNCTION      0.01   850.91     0  02:04    0.000144       0.539      -0.063
  YS02001783           JUNCTION      0.00  1180.49     0  01:59           0        5.19       0.004
  YS02001784           JUNCTION      1.06  1180.64     0  01:59      0.0305        5.22       0.009
  YS02001786           JUNCTION      0.06  1181.99     0  01:59     0.00162        5.22       0.014
  YS02001788           JUNCTION      0.07  1182.60     0  01:59     0.00204        5.22       0.006
  YS02001790           JUNCTION      0.15  1186.50     0  02:00     0.00446        5.22       0.018
  YS02001791           JUNCTION      0.00  1298.19     0  01:58           0        5.22      -0.021
  YS02001793           JUNCTION      0.00  1254.58     0  02:00           0        5.22       0.003
  YS02001882           JUNCTION      0.00    43.78     0  01:49           0      0.0134       4.119
  YS02001884           JUNCTION      0.00    44.54     0  02:09           0        0.05       5.206
  YS02001887           JUNCTION   1109.35  1109.38     0  02:01        1.73        1.76       0.244
  YS02001890           JUNCTION      0.00  1109.81     0  02:01           0        1.72       0.296
  YS02001895           JUNCTION      0.00   517.86     0  02:07           0        1.45       0.119
  YS02001898           JUNCTION      0.00   517.92     0  02:07           0        1.45      -0.003
  YS02001901           JUNCTION      0.00   518.22     0  01:59           0        1.45       0.227
  YS02001904           JUNCTION      0.00   518.75     0  01:59           0        1.46       0.184
  YS02001907           JUNCTION      0.00  2821.89     0  02:02           0         5.3       0.323
  YS02001910           JUNCTION      0.00  1960.88     0  02:02           0        3.75       0.187
  YS02001915           JUNCTION   1315.31  1960.22     0  02:02        2.41        3.78       0.035
  YS02001918           JUNCTION      0.00   651.77     0  02:03           0         1.4       0.003
  YS02001920           JUNCTION      2.87   651.03     0  02:03      0.0827        1.38       0.070
  YS02001923           JUNCTION      0.04   647.43     0  02:03     0.00109        1.29      -0.038
  YS02001926           JUNCTION      0.05   647.30     0  02:03      0.0015        1.27       0.010
  YS02001929           JUNCTION    647.12   647.12     0  02:03        1.27        1.27      -0.035
  YS02006553           JUNCTION      0.00   795.12     0  02:25           0        2.89       0.413
  YS02006556           JUNCTION      0.00   795.86     0  02:25           0         2.9       0.264
  YS02006558           JUNCTION   1507.23  1507.23     0  02:02        2.53        5.31       0.068
  YS02006561           JUNCTION      0.00  1176.58     0  01:59           0        5.19      -0.006
  YS02163301           JUNCTION      0.00   928.46     0  01:51           0        4.07       0.031
  YS02163601           JUNCTION      0.11  1365.15     0  01:51     0.00317         5.5       0.087
  YS02164001           JUNCTION      0.00  1364.85     0  01:51           0         5.5       0.035
  CC-1                 OUTFALL       0.00   683.00     0  00:00           0        4.31       0.000
  CC-2                 OUTFALL       0.00   683.00     0  00:00           0        4.68       0.000
  JK-1                 OUTFALL       0.00  1000.00     0  00:00           0        2.43       0.000
  JK-2                 OUTFALL       0.00  1000.00     0  00:00           0        1.37       0.000
  WSC                  OUTFALL       0.00   555.17     0  02:57           0         6.7       0.000
  CC-storage           STORAGE       0.00  3349.42     0  01:56           0        15.6      -0.199
  JK-storage           STORAGE       0.00  1303.79     0  01:55           0        5.37      -0.202
  
  
  **********************
  Node Surcharge Summary
  **********************
  
  Surcharging occurs when water rises above the top of the highest conduit.
  ---------------------------------------------------------------------
                                               Max. Height   Min. Depth
                                   Hours       Above Crown    Below Rim
  Node                 Type      Surcharged         Meters       Meters
  ---------------------------------------------------------------------
  WS02006109           JUNCTION        2.29          0.366        1.454
  WS02006110           JUNCTION        0.90          0.273        1.577
  WS02006112           JUNCTION        0.85          0.069        1.611
  WS02006228           JUNCTION        2.28          0.411        1.789
  WS02006229           JUNCTION        2.29          0.541        1.909
  WS02006230           JUNCTION        0.89          0.348        1.222
  WS02006231           JUNCTION        1.00          0.602        0.928
  WS02006232           JUNCTION        2.34          1.147        0.333
  WS02006234           JUNCTION        1.36          1.240        0.000
  WS02006235           JUNCTION        2.27          1.290        0.000
  WS02006238           JUNCTION        2.30          1.430        0.000
  WS02006239           JUNCTION        2.24          1.290        0.000
  WS02006240           JUNCTION        2.22          1.362        0.028
  WS02006242           JUNCTION        2.24          0.820        0.000
  WS02006243           JUNCTION        2.17          0.770        0.000
  WS02006245           JUNCTION        2.14          0.750        0.100
  WS02006247           JUNCTION        2.14          0.569        0.191
  WS02006248           JUNCTION        2.12          0.380        0.000
  WS02006249           JUNCTION        2.11          0.390        0.000
  WS02006251           JUNCTION        1.03          0.425        0.755
  WS02006252           JUNCTION        2.43          1.100        0.000
  WS02006256           JUNCTION        6.27          2.050        0.000
  YS02001580           JUNCTION        0.93          0.450        0.000
  YS02001583           JUNCTION        0.94          0.500        0.000
  YS02001586           JUNCTION        1.12          0.510        0.000
  YS02001590           JUNCTION        1.22          0.750        0.000
  YS02001593           JUNCTION        1.22          0.764        0.076
  YS02001596           JUNCTION        1.36          1.070        0.000
  YS02001600           JUNCTION        1.49          1.190        0.000
  YS02001601           JUNCTION        1.77          1.440        0.000
  YS02001602           JUNCTION        1.68          1.270        0.000
  YS02001605           JUNCTION        1.64          1.180        0.000
  YS02001607           JUNCTION        1.23          0.680        0.000
  YS02001610           JUNCTION        1.26          0.680        0.000
  YS02001613           JUNCTION        1.22          0.691        0.009
  YS02001616           JUNCTION        1.17          0.610        0.000
  YS02001619           JUNCTION        1.16          0.610        0.000
  YS02001622           JUNCTION        1.15          0.620        0.000
  YS02001625           JUNCTION        1.35          0.780        0.000
  YS02001629           JUNCTION        1.08          0.470        0.000
  YS02001633           JUNCTION        1.38          1.060        0.000
  YS02001641           JUNCTION        1.33          1.095        0.005
  YS02001644           JUNCTION        1.30          0.920        0.000
  YS02001647           JUNCTION        1.06          0.783        0.117
  YS02001649           JUNCTION        1.20          1.050        0.000
  YS02001652           JUNCTION        0.97          1.130        0.000
  YS02001655           JUNCTION        0.74          1.200        0.000
  YS02001658           JUNCTION        0.41          0.761        0.539
  YS02001661           JUNCTION        0.14          0.213        1.177
  YS02001748           JUNCTION        0.31          0.683        0.507
  YS02001751           JUNCTION        0.56          0.861        0.339
  YS02001754           JUNCTION        0.86          0.825        0.325
  YS02001757           JUNCTION        1.25          1.107        0.103
  YS02001759           JUNCTION        1.18          1.188        0.022
  YS02001762           JUNCTION        1.15          1.150        0.000
  YS02001765           JUNCTION        1.10          1.100        0.000
  YS02001767           JUNCTION        1.05          1.030        0.000
  YS02001770           JUNCTION        1.02          0.920        0.000
  YS02001774           JUNCTION        1.13          1.050        0.000
  YS02001779           JUNCTION        0.85          0.680        0.000
  YS02001783           JUNCTION        0.78          0.639        0.961
  YS02001784           JUNCTION        0.75          0.436        1.054
  YS02001786           JUNCTION        0.62          0.151        1.279
  YS02001882           JUNCTION        0.71          0.793        0.037
  YS02001884           JUNCTION        0.72          0.842        0.028
  YS02001887           JUNCTION        0.77          0.950        0.000
  YS02001890           JUNCTION        0.79          0.760        0.000
  YS02001895           JUNCTION        0.70          0.572        0.178
  YS02001898           JUNCTION        0.69          0.543        0.197
  YS02001901           JUNCTION        0.75          0.711        0.159
  YS02001904           JUNCTION        0.74          0.696        0.154
  YS02001907           JUNCTION        1.07          0.950        0.000
  YS02001910           JUNCTION        0.82          1.053        0.047
  YS02001915           JUNCTION        0.71          1.000        0.000
  YS02001918           JUNCTION        0.60          0.810        0.000
  YS02001920           JUNCTION        0.62          1.131        0.009
  YS02001923           JUNCTION        0.23          0.820        0.000
  YS02001926           JUNCTION        0.28          0.900        0.000
  YS02001929           JUNCTION        0.10          0.780        0.000
  YS02006553           JUNCTION        1.11          1.080        0.110
  YS02006556           JUNCTION        0.94          1.350        0.000
  YS02006558           JUNCTION        0.93          1.400        0.000
  YS02006561           JUNCTION        0.57          0.409        0.741
  YS02163301           JUNCTION        1.36          0.942        0.088
  YS02163601           JUNCTION        1.41          1.080        0.000
  YS02164001           JUNCTION        1.33          1.100        0.000
  
  
  *********************
  Node Flooding Summary
  *********************
  
  Flooding refers to all water that overflows a node, whether it ponds or not.
  --------------------------------------------------------------------------
                                                             Total   Maximum
                                 Maximum   Time of Max       Flood    Ponded
                        Hours       Rate    Occurrence      Volume     Depth
  Node                 Flooded       LPS   days hr:min    10^6 ltr    Meters
  --------------------------------------------------------------------------
  WS02006234              0.01      1.05      0  01:59       0.000     0.000
  WS02006235              0.01      2.21      0  01:59       0.000     0.000
  WS02006238              0.01      1.55      0  01:59       0.000     0.000
  WS02006239              0.01      0.77      0  01:59       0.000     0.000
  WS02006242              0.01     13.25      0  01:59       0.000     0.000
  WS02006243              0.01      0.30      0  01:59       0.000     0.000
  WS02006248              0.01     17.49      0  01:42       0.000     0.000
  WS02006249              1.01    108.12      0  01:59       0.252     0.000
  WS02006252              0.01    245.63      0  00:00       0.000     0.000
  WS02006256              1.39    293.19      0  00:00       0.478     0.000
  YS02001580              0.01     46.44      0  01:47       0.000     0.000
  YS02001583              0.01     92.71      0  01:46       0.000     0.000
  YS02001586              0.75    734.07      0  02:04       0.837     0.000
  YS02001590              0.01      2.30      0  01:47       0.000     0.000
  YS02001596              0.01      0.26      0  01:59       0.000     0.000
  YS02001600              0.01      1.28      0  01:47       0.000     0.000
  YS02001601              1.03   1733.72      0  02:02       2.385     0.000
  YS02001602              0.89     62.03      0  02:34       0.181     0.000
  YS02001605              0.01      1.62      0  01:46       0.000     0.000
  YS02001607              0.01      0.29      0  01:59       0.000     0.000
  YS02001610              0.78    953.29      0  02:06       1.325     0.000
  YS02001616              0.04     26.93      0  02:09       0.000     0.000
  YS02001619              0.14    201.83      0  02:03       0.058     0.000
  YS02001622              0.01      0.29      0  01:59       0.000     0.000
  YS02001625              0.76   1504.76      0  02:07       2.118     0.000
  YS02001629              0.26    264.01      0  02:02       0.118     0.000
  YS02001633              0.01      2.12      0  01:59       0.000     0.000
  YS02001644              0.34   1999.21      0  02:02       1.173     0.000
  YS02001649              0.01      1.34      0  01:59       0.000     0.000
  YS02001652              0.01     22.72      0  01:53       0.000     0.000
  YS02001655              0.01    151.82      0  01:53       0.000     0.000
  YS02001762              0.01     19.53      0  02:09       0.000     0.000
  YS02001765              0.01     18.92      0  02:09       0.000     0.000
  YS02001767              0.01      7.78      0  02:09       0.000     0.000
  YS02001770              0.09    256.87      0  02:01       0.048     0.000
  YS02001774              0.01     22.51      0  01:52       0.000     0.000
  YS02001779              0.30    850.90      0  02:04       0.518     0.000
  YS02001887              0.01      1.07      0  01:59       0.000     0.000
  YS02001890              0.28    593.42      0  02:01       0.263     0.000
  YS02001907              0.54   2821.77      0  02:02       2.497     0.000
  YS02001915              0.01      3.09      0  02:00       0.000     0.000
  YS02001918              0.01     89.79      0  01:52       0.000     0.000
  YS02001923              0.01    163.19      0  01:52       0.000     0.000
  YS02001926              0.01     34.43      0  01:52       0.000     0.000
  YS02001929              0.01    265.58      0  01:52       0.000     0.000
  YS02006556              0.01      2.55      0  01:59       0.000     0.000
  YS02163601              0.01      0.83      0  02:32       0.000     0.000
  YS02164001              0.01      1.98      0  02:32       0.000     0.000
  
  
  **********************
  Storage Volume Summary
  **********************
  
  ------------------------------------------------------------------------------------------------
                         Average    Avg   Evap  Exfil     Maximum    Max    Time of Max    Maximum
                          Volume   Pcnt   Pcnt   Pcnt      Volume   Pcnt     Occurrence    Outflow
  Storage Unit           1000 m³   Full   Loss   Loss     1000 m³   Full    days hr:min        LPS
  ------------------------------------------------------------------------------------------------
  CC-storage               2.427   37.9    0.0    0.0       5.101   79.6       0  02:38    1783.53
  JK-storage               0.147   50.3    0.0    0.0       0.213   72.9       0  02:27    2300.00
  
  
  ***********************
  Outfall Loading Summary
  ***********************
  
  -----------------------------------------------------------
                         Flow       Avg       Max       Total
                         Freq      Flow      Flow      Volume
  Outfall Node           Pcnt       LPS       LPS    10^6 ltr
  -----------------------------------------------------------
  CC-1                  18.23    683.00    683.00       4.313
  CC-2                  21.49    683.00    683.00       4.675
  JK-1                   9.36   1000.00   1000.00       2.433
  JK-2                   3.84   1000.00   1000.00       1.366
  WSC                   99.97    277.83    555.17       6.695
  -----------------------------------------------------------
  System                30.58   3643.83   3920.89      19.481
  
  
  ********************
  Link Flow Summary
  ********************
  
  -----------------------------------------------------------------------------
                                 Maximum  Time of Max   Maximum    Max/    Max/
                                  |Flow|   Occurrence   |Veloc|    Full    Full
  Link                 Type          LPS  days hr:min     m/sec    Flow   Depth
  -----------------------------------------------------------------------------
  1                    CONDUIT    555.17     0  02:57      2.83    0.19    0.30
  WS02003060WS02003069 CONDUIT    553.73     0  02:57      1.64    0.22    0.34
  WS02003066WSF200     CONDUIT    537.28     0  02:57      2.85    0.09    0.22
  WS02003067WS02003066 CONDUIT    537.22     0  02:57      1.21    0.17    0.42
  WS02003069WS02003072 CONDUIT    553.68     0  02:58      1.37    0.27    0.39
  WS02003072WS02003073 CONDUIT    553.46     0  02:59      1.44    1.20    0.37
  WS02004401WS02004402 CONDUIT    540.37     0  02:54      0.98    0.65    0.86
  WS02004402WS02004403 CONDUIT    539.38     0  02:54      0.97    0.77    0.88
  WS02004403WS02004404 CONDUIT    539.54     0  02:54      0.92    0.39    0.93
  WS02004404WS02004405 CONDUIT    539.50     0  02:54      1.08    5.29    0.96
  WS02004405WS02004406 CONDUIT    539.20     0  02:54      0.99    1.06    0.96
  WS02004406WS02004407 CONDUIT    538.87     0  02:55      1.04    0.24    0.63
  WS02004407WS02004409 CONDUIT    538.45     0  02:55      1.56    0.19    0.48
  WS02004409WS02004410 CONDUIT    538.15     0  02:55      1.04    0.70    0.67
  WS02004410WS02004411 CONDUIT    537.83     0  02:55      0.97    0.73    0.69
  WS02004411WS02004412 CONDUIT    537.72     0  02:56      0.92    0.76    0.69
  WS02004412WS02004413 CONDUIT    537.56     0  02:56      0.82    0.36    0.78
  WS02004413WS02003067 CONDUIT    537.18     0  02:56      1.11    0.23    0.59
  WS02006109WS02006110 CONDUIT    572.81     0  01:42      1.14    1.10    1.00
  WS02006110WS02006113 CONDUIT    591.84     0  01:59      1.42    0.54    0.79
  WS02006111WS02006112 CONDUIT    547.27     0  01:59      1.81    0.26    0.67
  WS02006112WS02006115 CONDUIT    552.40     0  02:29      0.87    0.33    0.87
  WS02006113WS02006111 CONDUIT    569.17     0  01:59      2.49    0.68    0.47
  WS02006115WS02006116 CONDUIT    542.55     0  02:54      1.04    0.70    0.76
  WS02006116WS02004401 CONDUIT    541.14     0  02:54      0.98    0.75    0.84
  WS02006228WS02006109 CONDUIT    576.06     0  01:42      1.15    2.52    1.00
  WS02006229WS02006228 CONDUIT    575.01     0  01:42      1.14    1.90    1.00
  WS02006230WS02006229 CONDUIT    571.58     0  01:42      1.49   12.72    1.00
  WS02006231WS02006230 CONDUIT    574.22     0  02:27      1.56    8.71    1.00
  WS02006232WS02006231 CONDUIT    570.78     0  03:10      1.49    1.20    1.00
  WS02006234WS02006232 CONDUIT    569.67     0  03:10      1.48    1.15    1.00
  WS02006235WS02006234 CONDUIT    565.46     0  03:10      1.47    5.97    1.00
  WS02006238WS02006235 CONDUIT    423.55     0  02:00      1.45    0.95    1.00
  WS02006239WS02006238 CONDUIT    424.38     0  03:21      1.10    1.36    1.00
  WS02006240WS02006239 CONDUIT    425.22     0  03:21      1.24    1.34    1.00
  WS02006242WS02006240 CONDUIT    425.92     0  03:21      1.13    1.69    1.00
  WS02006243WS02006242 CONDUIT    425.32     0  03:21      1.40    0.91    1.00
  WS02006245WS02006243 CONDUIT    424.50     0  03:21      1.45    1.26    1.00
  WS02006247WS02006245 CONDUIT    423.55     0  03:21      1.43    3.36    1.00
  WS02006248WS02006247 CONDUIT    424.71     0  03:21      1.44    0.92    1.00
  WS02006249WS02006248 CONDUIT    426.66     0  03:21      1.36    2.34    1.00
  WS02006251WS02006249 CONDUIT    459.02     0  00:00      1.99    1.32    1.00
  WS02006252WS02006251 CONDUIT    407.26     0  01:41     24.61    1.49    1.00
  WS02006256WS02006235 CONDUIT    288.91     0  00:00      4.23    3.06    1.00
  WSF200WS02003060     CONDUIT    537.36     0  02:57      2.06    0.12    0.28
  YS02001580YS02001583 CONDUIT     77.38     0  01:46      0.55    0.30    1.00
  YS02001583YS02001586 CONDUIT    128.76     0  01:46      0.55    0.19    1.00
  YS02001586YS02001590 CONDUIT    318.30     0  01:59      1.24    0.56    1.00
  YS02001590YS02001593 CONDUIT    318.12     0  02:29      1.13    2.00    1.00
  YS02001593YS02001596 CONDUIT    318.15     0  02:25      1.71    0.50    1.00
  YS02001596YS02001600 CONDUIT    319.40     0  01:59      1.26    0.62    1.00
  YS02001600YS02001601 CONDUIT    319.27     0  01:59      1.13    0.55    1.00
  YS02001601YS02001602 CONDUIT    501.61     0  01:46      1.77    1.81    1.00
  YS02001602YS02001605 CONDUIT    501.75     0  01:46      1.77   10.62    1.00
  YS02001605YS02001607 CONDUIT    501.88     0  01:46      1.78    2.75    1.00
  YS02001607YS02001610 CONDUIT    506.03     0  01:45      0.64    0.48    1.00
  YS02001610YS02001613 CONDUIT    617.28     0  02:06      0.79    0.71    1.00
  YS02001613YS02001616 CONDUIT    616.86     0  02:06      0.79    0.53    1.00
  YS02001616YS02001619 CONDUIT    616.90     0  02:06      0.79    1.07    1.00
  YS02001619YS02001622 CONDUIT   1053.94     0  02:07      1.34    1.55    1.00
  YS02001622YS02001625 CONDUIT   1053.55     0  02:07      1.34    0.56    1.00
  YS02001625YS02001629 CONDUIT    927.77     0  01:51      1.18    0.44    1.00
  YS02001629YS02163301 CONDUIT    928.46     0  01:51      1.18    1.14    1.00
  YS02001633YS02163601 CONDUIT   1365.04     0  01:51      1.74    1.43    1.00
  YS02001641YS02001644 CONDUIT   1363.92     0  01:51      1.74    4.41    1.00
  YS02001644YS02001647 CONDUIT   1757.22     0  01:51      2.24    1.03    1.00
  YS02001647YS02001649 CONDUIT   1781.35     0  01:51      2.32    0.94    1.00
  YS02001649YS02001757 CONDUIT   1997.30     0  01:52      2.57    1.21    1.00
  YS02001652YS02001649 CONDUIT   1201.46     0  02:01      1.53    0.60    1.00
  YS02001655YS02001652 CONDUIT   1201.58     0  02:01      1.53    0.58    1.00
  YS02001658YS02001655 CONDUIT   1201.70     0  02:01      1.84    0.51    1.00
  YS02001661YS02001658 CONDUIT   1202.11     0  02:01      2.27    0.47    1.00
  YS02001664YS02001661 CONDUIT   1201.88     0  02:01      2.25    0.38    0.89
  YS02001745YS02001748 CONDUIT    758.57     0  02:01      2.12    0.29    0.97
  YS02001748YS02001751 CONDUIT    759.29     0  02:01      1.65    0.38    1.00
  YS02001751YS02001754 CONDUIT    760.07     0  02:01      1.40    0.37    1.00
  YS02001754YS02001757 CONDUIT    760.74     0  02:01      0.97    0.31    1.00
  YS02001757CaochengTiaoxuchi CONDUIT   3349.42     0  01:56      4.26    1.45    1.00
  YS02001759YS02001757 CONDUIT   1413.98     0  02:01      1.80    1.00    1.00
  YS02001762YS02001759 CONDUIT    773.75     0  01:56      0.99    0.89    1.00
  YS02001765YS02001762 CONDUIT    773.24     0  01:56      0.98    0.72    1.00
  YS02001767YS02001765 CONDUIT    774.06     0  01:56      0.99    0.97    1.00
  YS02001770YS02001767 CONDUIT    774.13     0  01:56      0.99    3.07    1.00
  YS02001774YS02001770 CONDUIT    850.89     0  02:04      1.08    0.54    1.00
  YS02001779YS02001774 CONDUIT    850.90     0  02:04      1.08    0.43    1.00
  YS02001783YS02001784 CONDUIT   1179.58     0  01:59      2.35    1.63    1.00
  YS02001784YS02001785 CONDUIT   1181.94     0  01:59      2.35    2.75    1.00
  YS02001786YS02001788 CONDUIT   1182.53     0  01:59      2.50    2.28    0.89
  YS02001788YS02001790 CONDUIT   1186.34     0  02:00      2.73    0.87    0.85
  YS02001790YS02001791 CONDUIT   1298.19     0  01:58      3.44    1.41    0.71
  YS02001791YS02001793 CONDUIT   1254.58     0  02:00      6.79    0.54    0.45
  YS02001793JiankangQianchi CONDUIT   1303.79     0  01:55      2.59    0.10    0.65
  YS02001882YS02001884 CONDUIT     43.78     0  01:49      0.17    0.05    1.00
  YS02001884YS02001887 CONDUIT     44.54     0  02:09      0.13    0.06    1.00
  YS02001887YS02001890 CONDUIT   1109.81     0  02:01      1.41    1.90    1.00
  YS02001890YS02001895 CONDUIT    517.86     0  02:07      0.66    0.24    1.00
  YS02001895YS02001898 CONDUIT    517.92     0  02:07      0.66    0.90    1.00
  YS02001898YS02001901 CONDUIT    518.22     0  01:59      0.66    0.33    1.00
  YS02001901YS02001904 CONDUIT    518.75     0  01:59      0.66    0.80    1.00
  YS02001904YS02001907 CONDUIT    518.42     0  01:59      0.66    0.18    1.00
  YS02001907YS02006553 CONDUIT    795.12     0  02:25      0.88    0.94    1.00
  YS02001910YS02001907 CONDUIT   1960.85     0  02:02      2.50    1.11    1.00
  YS02001915YS02001910 CONDUIT   1960.88     0  02:02      2.50    0.97    1.00
  YS02001918YS02001915 CONDUIT    652.69     0  02:03      0.83    0.36    1.00
  YS02001920YS02001918 CONDUIT    651.77     0  02:03      0.83    0.63    1.00
  YS02001923YS02001920 CONDUIT    648.16     0  02:03      0.83    0.29    1.00
  YS02001926YS02001923 CONDUIT    647.39     0  02:03      0.94    0.92    1.00
  YS02001929YS02001926 CONDUIT    647.24     0  02:03      1.08    0.31    1.00
  YS02006553YS02006556 CONDUIT    795.86     0  02:25      1.01    0.68    1.00
  YS02006556YS02006558 CONDUIT    796.53     0  02:25      1.01    0.63    1.00
  YS02006558YS02006561 CONDUIT   1176.58     0  01:59      4.16    2.60    1.00
  YS02006561YS02001783 CONDUIT   1180.49     0  01:59      2.35    0.61    1.00
  YS02163301YS02001633 CONDUIT    928.02     0  01:51      1.18    0.87    1.00
  YS02163601YS02164001 CONDUIT   1364.85     0  01:51      1.74    1.21    1.00
  YS02164001YS02001641 CONDUIT   1364.00     0  01:51      1.74    1.86    1.00
  CC-R1                PUMP       683.00     0  00:00              1.00
  CC-R2                PUMP       683.00     0  00:00              1.00
  CC-S1                PUMP       200.00     0  00:00              1.00
  CC-S2                PUMP       200.00     0  00:00              1.00
  JK-R1                PUMP      1000.00     0  00:00              1.00
  JK-R2                PUMP      1000.00     0  00:00              1.00
  JK-S                 PUMP       300.00     0  00:00              1.00
  
  
  ***************************
  Flow Classification Summary
  ***************************
  
  -------------------------------------------------------------------------------------
                      Adjusted    ---------- Fraction of Time in Flow Class ---------- 
                       /Actual         Up    Down  Sub   Sup   Up    Down  Norm  Inlet 
  Conduit               Length    Dry  Dry   Dry   Crit  Crit  Crit  Crit  Ltd   Ctrl  
  -------------------------------------------------------------------------------------
  1                       1.00   0.00  0.00  0.00  0.00  1.00  0.00  0.00  0.41  0.00
  WS02003060WS02003069    1.00   0.00  0.00  0.00  0.98  0.02  0.00  0.00  0.66  0.00
  WS02003066WSF200        1.00   0.13  0.00  0.00  0.00  0.87  0.00  0.00  0.73  0.00
  WS02003067WS02003066    1.00   0.10  0.02  0.00  0.88  0.00  0.00  0.00  0.00  0.00
  WS02003069WS02003072    1.00   0.00  0.00  0.00  0.99  0.01  0.00  0.00  0.69  0.00
  WS02003072WS02003073    1.00   0.00  0.00  0.00  0.00  0.00  0.00  1.00  0.00  0.00
  WS02004401WS02004402    1.00   0.02  0.00  0.00  0.98  0.00  0.00  0.00  0.00  0.00
  WS02004402WS02004403    1.00   0.02  0.00  0.00  0.97  0.00  0.00  0.00  0.00  0.00
  WS02004403WS02004404    1.00   0.00  0.03  0.00  0.97  0.00  0.00  0.00  0.00  0.00
  WS02004404WS02004405    1.00   0.00  0.00  0.00  1.00  0.00  0.00  0.00  0.00  0.00
  WS02004405WS02004406    1.00   0.00  0.00  0.00  1.00  0.00  0.00  0.00  0.00  0.00
  WS02004406WS02004407    1.00   0.00  0.05  0.00  0.95  0.00  0.00  0.00  0.00  0.00
  WS02004407WS02004409    1.00   0.05  0.00  0.00  0.94  0.01  0.00  0.00  0.94  0.00
  WS02004409WS02004410    1.00   0.05  0.00  0.00  0.95  0.00  0.00  0.00  0.03  0.00
  WS02004410WS02004411    1.00   0.05  0.00  0.00  0.95  0.00  0.00  0.00  0.01  0.00
  WS02004411WS02004412    1.00   0.05  0.00  0.00  0.95  0.00  0.00  0.00  0.00  0.00
  WS02004412WS02004413    1.00   0.05  0.00  0.00  0.94  0.00  0.00  0.00  0.01  0.00
  WS02004413WS02003067    1.00   0.06  0.04  0.00  0.00  0.00  0.90  0.00  0.00  0.00
  WS02006109WS02006110    1.00   0.00  0.01  0.00  0.98  0.00  0.01  0.00  0.00  0.00
  WS02006110WS02006113    1.00   0.01  0.01  0.00  0.98  0.00  0.00  0.00  0.00  0.00
  WS02006111WS02006112    1.00   0.02  0.00  0.00  0.98  0.00  0.00  0.00  0.98  0.00
  WS02006112WS02006115    1.00   0.02  0.00  0.00  0.97  0.00  0.00  0.00  0.00  0.00
  WS02006113WS02006111    1.00   0.02  0.00  0.00  0.00  0.98  0.00  0.00  0.16  0.00
  WS02006115WS02006116    1.00   0.02  0.00  0.00  0.97  0.00  0.00  0.01  0.00  0.00
  WS02006116WS02004401    1.00   0.02  0.00  0.00  0.98  0.00  0.00  0.00  0.00  0.00
  WS02006228WS02006109    1.00   0.00  0.00  0.00  1.00  0.00  0.00  0.00  0.00  0.00
  WS02006229WS02006228    1.00   0.00  0.00  0.00  0.99  0.00  0.00  0.01  0.00  0.00
  WS02006230WS02006229    1.00   0.00  0.00  0.00  0.99  0.00  0.00  0.01  0.00  0.00
  WS02006231WS02006230    1.00   0.00  0.00  0.00  0.32  0.00  0.68  0.00  0.00  0.00
  WS02006232WS02006231    1.00   0.00  0.00  0.00  0.99  0.00  0.01  0.00  0.00  0.00
  WS02006234WS02006232    1.00   0.00  0.00  0.00  1.00  0.00  0.00  0.00  0.12  0.00
  WS02006235WS02006234    1.00   0.00  0.00  0.00  0.82  0.00  0.18  0.00  0.00  0.00
  WS02006238WS02006235    1.00   0.00  0.00  0.00  1.00  0.00  0.00  0.00  0.00  0.00
  WS02006239WS02006238    1.00   0.00  0.00  0.00  1.00  0.00  0.00  0.00  0.23  0.00
  WS02006240WS02006239    1.00   0.00  0.00  0.00  0.70  0.00  0.00  0.30  0.01  0.00
  WS02006242WS02006240    1.00   0.00  0.00  0.00  1.00  0.00  0.00  0.00  0.00  0.00
  WS02006243WS02006242    1.00   0.00  0.00  0.00  0.99  0.00  0.00  0.00  0.37  0.00
  WS02006245WS02006243    1.00   0.00  0.00  0.00  0.78  0.00  0.00  0.22  0.00  0.00
  WS02006247WS02006245    1.00   0.00  0.00  0.00  0.99  0.00  0.00  0.01  0.00  0.00
  WS02006248WS02006247    1.00   0.00  0.00  0.00  0.99  0.00  0.00  0.01  0.18  0.00
  WS02006249WS02006248    1.00   0.00  0.00  0.00  0.64  0.00  0.36  0.00  0.00  0.00
  WS02006251WS02006249    1.00   0.00  0.00  0.00  1.00  0.00  0.00  0.00  0.38  0.00
  WS02006252WS02006251    1.00   0.00  0.39  0.00  0.13  0.00  0.48  0.00  0.00  0.00
  WS02006256WS02006235    1.00   0.00  0.00  0.00  1.00  0.00  0.00  0.00  0.00  0.00
  WSF200WS02003060        1.00   0.00  0.13  0.00  0.22  0.65  0.00  0.00  0.29  0.00
  YS02001580YS02001583    1.00   0.22  0.54  0.00  0.24  0.00  0.00  0.00  0.63  0.00
  YS02001583YS02001586    1.00   0.40  0.30  0.00  0.29  0.00  0.00  0.00  0.63  0.00
  YS02001586YS02001590    1.00   0.13  0.00  0.00  0.46  0.04  0.00  0.38  0.34  0.00
  YS02001590YS02001593    1.00   0.13  0.01  0.00  0.17  0.00  0.70  0.00  0.00  0.00
  YS02001593YS02001596    1.00   0.13  0.00  0.00  0.19  0.01  0.00  0.67  0.02  0.00
  YS02001596YS02001600    1.00   0.13  0.00  0.00  0.24  0.01  0.00  0.62  0.04  0.00
  YS02001600YS02001601    1.00   0.13  0.01  0.00  0.86  0.00  0.00  0.00  0.57  0.00
  YS02001601YS02001602    1.00   0.13  0.01  0.00  0.87  0.00  0.00  0.00  0.00  0.00
  YS02001602YS02001605    1.00   0.13  0.00  0.00  0.87  0.00  0.00  0.00  0.00  0.00
  YS02001605YS02001607    1.00   0.13  0.00  0.00  0.87  0.00  0.00  0.00  0.00  0.00
  YS02001607YS02001610    1.00   0.13  0.00  0.00  0.86  0.00  0.00  0.00  0.01  0.00
  YS02001610YS02001613    1.00   0.13  0.00  0.00  0.87  0.00  0.00  0.00  0.00  0.00
  YS02001613YS02001616    1.00   0.13  0.00  0.00  0.87  0.00  0.00  0.00  0.00  0.00
  YS02001616YS02001619    1.00   0.13  0.00  0.00  0.87  0.00  0.00  0.00  0.00  0.00
  YS02001619YS02001622    1.00   0.13  0.00  0.00  0.87  0.00  0.00  0.00  0.28  0.00
  YS02001622YS02001625    1.00   0.13  0.00  0.00  0.87  0.00  0.00  0.00  0.03  0.00
  YS02001625YS02001629    1.00   0.13  0.04  0.00  0.21  0.00  0.63  0.00  0.00  0.00
  YS02001629YS02163301    1.00   0.14  0.01  0.00  0.85  0.00  0.00  0.00  0.00  0.00
  YS02001633YS02163601    1.00   0.00  0.01  0.00  0.99  0.00  0.00  0.00  0.14  0.00
  YS02001641YS02001644    1.00   0.00  0.01  0.00  0.99  0.00  0.00  0.00  0.00  0.00
  YS02001644YS02001647    1.00   0.00  0.16  0.00  0.84  0.00  0.00  0.00  0.00  0.00
  YS02001647YS02001649    1.00   0.00  0.16  0.00  0.59  0.25  0.00  0.00  0.55  0.00
  YS02001649YS02001757    1.00   0.00  0.00  0.00  0.88  0.12  0.00  0.00  0.40  0.00
  YS02001652YS02001649    1.00   0.00  0.00  0.00  0.97  0.03  0.00  0.00  0.70  0.00
  YS02001655YS02001652    1.00   0.00  0.00  0.00  0.24  0.01  0.00  0.76  0.05  0.00
  YS02001658YS02001655    1.00   0.00  0.14  0.00  0.71  0.15  0.00  0.00  0.62  0.00
  YS02001661YS02001658    1.00   0.14  0.00  0.00  0.55  0.32  0.00  0.00  0.65  0.00
  YS02001664YS02001661    1.00   0.13  0.00  0.00  0.78  0.10  0.00  0.00  0.84  0.00
  YS02001745YS02001748    1.00   0.00  0.00  0.00  0.15  0.00  0.00  0.84  0.05  0.00
  YS02001748YS02001751    1.00   0.00  0.00  0.00  0.87  0.13  0.00  0.00  0.73  0.00
  YS02001751YS02001754    1.00   0.00  0.00  0.00  0.22  0.01  0.00  0.77  0.03  0.00
  YS02001754YS02001757    1.00   0.00  0.00  0.00  1.00  0.00  0.00  0.00  0.76  0.00
  YS02001757CaochengTiaoxuchi    1.00   0.00  0.00  0.00  0.97  0.03  0.00  0.00  0.58  0.00
  YS02001759YS02001757    1.00   0.00  0.00  0.00  0.98  0.02  0.00  0.00  0.50  0.00
  YS02001762YS02001759    1.00   0.00  0.00  0.00  1.00  0.00  0.00  0.00  0.04  0.00
  YS02001765YS02001762    1.00   0.00  0.00  0.00  1.00  0.00  0.00  0.00  0.63  0.00
  YS02001767YS02001765    1.00   0.00  0.00  0.00  1.00  0.00  0.00  0.00  0.01  0.00
  YS02001770YS02001767    1.00   0.00  0.00  0.00  1.00  0.00  0.00  0.00  0.00  0.00
  YS02001774YS02001770    1.00   0.00  0.13  0.00  0.71  0.00  0.16  0.00  0.02  0.00
  YS02001779YS02001774    1.00   0.00  0.00  0.00  1.00  0.00  0.00  0.00  0.72  0.00
  YS02001783YS02001784    1.00   0.00  0.16  0.00  0.84  0.00  0.00  0.00  0.54  0.00
  YS02001784YS02001785    1.00   0.00  0.00  0.00  1.00  0.00  0.00  0.00  0.15  0.00
  YS02001786YS02001788    1.00   0.00  0.00  0.00  0.80  0.20  0.00  0.00  0.00  0.00
  YS02001788YS02001790    1.00   0.00  0.00  0.00  0.21  0.79  0.00  0.00  0.78  0.00
  YS02001790YS02001791    1.00   0.00  0.00  0.00  0.01  0.99  0.00  0.00  0.16  0.00
  YS02001791YS02001793    1.00   0.00  0.00  0.00  0.00  1.00  0.00  0.00  0.01  0.00
  YS02001793JiankangQianchi    1.00   0.00  0.00  0.00  0.94  0.06  0.00  0.00  0.97  0.00
  YS02001882YS02001884    1.00   0.14  0.01  0.00  0.85  0.00  0.00  0.00  0.00  0.00
  YS02001884YS02001887    1.00   0.06  0.05  0.00  0.89  0.00  0.00  0.00  0.00  0.00
  YS02001887YS02001890    1.00   0.00  0.00  0.00  0.97  0.00  0.03  0.00  0.00  0.00
  YS02001890YS02001895    1.00   0.00  0.15  0.00  0.85  0.00  0.00  0.00  0.00  0.00
  YS02001895YS02001898    1.00   0.15  0.00  0.00  0.83  0.00  0.01  0.00  0.00  0.00
  YS02001898YS02001901    1.00   0.15  0.00  0.00  0.85  0.00  0.00  0.00  0.01  0.00
  YS02001901YS02001904    1.00   0.15  0.00  0.00  0.85  0.00  0.00  0.00  0.00  0.00
  YS02001904YS02001907    1.00   0.00  0.15  0.00  0.85  0.00  0.00  0.00  0.00  0.00
  YS02001907YS02006553    1.00   0.00  0.02  0.00  0.98  0.00  0.00  0.00  0.00  0.00
  YS02001910YS02001907    1.00   0.00  0.00  0.00  0.97  0.00  0.00  0.03  0.12  0.00
  YS02001915YS02001910    1.00   0.00  0.00  0.00  0.97  0.03  0.00  0.00  0.13  0.00
  YS02001918YS02001915    1.00   0.00  0.01  0.00  0.98  0.02  0.00  0.00  0.70  0.00
  YS02001920YS02001918    1.00   0.00  0.01  0.00  0.99  0.00  0.00  0.00  0.00  0.00
  YS02001923YS02001920    1.00   0.00  0.00  0.00  1.00  0.00  0.00  0.00  0.89  0.00
  YS02001926YS02001923    1.00   0.00  0.07  0.00  0.09  0.00  0.84  0.00  0.00  0.00
  YS02001929YS02001926    1.00   0.00  0.13  0.00  0.87  0.00  0.00  0.00  0.79  0.00
  YS02006553YS02006556    1.00   0.01  0.00  0.00  0.99  0.00  0.00  0.00  0.03  0.00
  YS02006556YS02006558    1.00   0.00  0.00  0.00  1.00  0.00  0.00  0.00  0.00  0.00
  YS02006558YS02006561    1.00   0.16  0.00  0.00  0.08  0.75  0.00  0.00  0.17  0.00
  YS02006561YS02001783    1.00   0.16  0.00  0.00  0.13  0.71  0.00  0.00  0.65  0.00
  YS02163301YS02001633    1.00   0.00  0.14  0.00  0.86  0.00  0.00  0.00  0.00  0.00
  YS02163601YS02164001    1.00   0.00  0.08  0.00  0.92  0.00  0.00  0.00  0.00  0.00
  YS02164001YS02001641    1.00   0.01  0.07  0.00  0.92  0.00  0.00  0.00  0.05  0.00
  
  
  *************************
  Conduit Surcharge Summary
  *************************
  
  ----------------------------------------------------------------------------
                                                           Hours        Hours 
                         --------- Hours Full --------   Above Full   Capacity
  Conduit                Both Ends  Upstream  Dnstream   Normal Flow   Limited
  ----------------------------------------------------------------------------
  WS02003072WS02003073        0.01      0.01      0.01      1.09         0.01
  WS02004404WS02004405        0.01      0.01      0.01      4.87         0.01
  WS02004405WS02004406        0.01      0.01      0.01      0.82         0.01
  WS02006109WS02006110        0.89      0.89      2.33      0.98         0.01
  WS02006110WS02006113        0.01      0.01      2.31      0.01         0.01
  WS02006111WS02006112        0.01      0.01      2.67      0.01         0.01
  WS02006112WS02006115        0.01      0.01      0.85      0.01         0.01
  WS02006228WS02006109        2.29      2.34      2.29      2.98         2.29
  WS02006229WS02006228        2.28      2.29      2.28      2.61         2.27
  WS02006230WS02006229        2.45      2.57      2.45      5.20         2.45
  WS02006231WS02006230        0.89      0.89      1.04      5.03         0.01
  WS02006232WS02006231        1.00      1.00      2.33      1.06         0.01
  WS02006234WS02006232        2.25      2.25      2.33      1.05         1.03
  WS02006235WS02006234        1.36      1.36      2.27      4.95         0.01
  WS02006238WS02006235        2.28      2.29      2.33      0.01         0.01
  WS02006239WS02006238        2.29      2.31      2.30      2.27         1.96
  WS02006240WS02006239        2.21      2.23      2.24      2.25         1.85
  WS02006242WS02006240        2.22      2.22      2.34      2.53         0.01
  WS02006243WS02006242        2.18      2.18      2.24      0.01         0.03
  WS02006245WS02006243        2.14      2.14      2.17      1.34         1.38
  WS02006247WS02006245        2.14      2.14      2.14      4.80         2.13
  WS02006248WS02006247        2.12      2.12      2.14      0.01         0.03
  WS02006249WS02006248        2.11      2.12      2.11      4.78         0.01
  WS02006251WS02006249        2.11      2.11      2.11      2.37         2.05
  WS02006252WS02006251        2.42      2.42      2.43      2.43         0.01
  WS02006256WS02006235        4.96      4.99      6.25      1.39         0.01
  YS02001580YS02001583        0.93      0.93      1.01      0.01         0.01
  YS02001583YS02001586        0.94      0.94      1.12      0.01         0.01
  YS02001586YS02001590        1.13      1.13      1.22      0.01         0.01
  YS02001590YS02001593        1.22      1.22      1.24      1.26         0.01
  YS02001593YS02001596        1.23      1.23      1.36      0.01         0.01
  YS02001596YS02001600        1.41      1.41      1.49      0.01         0.01
  YS02001600YS02001601        1.54      1.54      1.77      0.01         0.01
  YS02001601YS02001602        1.68      1.68      1.80      1.49         0.01
  YS02001602YS02001605        1.64      1.64      1.68      2.51         0.01
  YS02001605YS02001607        1.61      1.64      1.61      1.71         1.60
  YS02001607YS02001610        1.23      1.23      1.26      0.01         0.01
  YS02001610YS02001613        1.22      1.22      1.26      0.01         0.01
  YS02001613YS02001616        1.17      1.17      1.22      0.01         0.01
  YS02001616YS02001619        1.16      1.16      1.17      0.12         0.13
  YS02001619YS02001622        1.15      1.16      1.15      1.17         1.05
  YS02001622YS02001625        1.15      1.15      1.35      0.01         0.01
  YS02001625YS02001629        1.08      1.08      1.35      0.01         0.01
  YS02001629YS02163301        1.35      1.35      1.36      0.10         0.18
  YS02001633YS02163601        1.38      1.38      1.41      0.33         0.33
  YS02001641YS02001644        1.30      1.33      1.30      1.83         1.29
  YS02001644YS02001647        1.05      1.05      1.30      0.04         0.01
  YS02001647YS02001649        1.06      1.06      1.20      0.01         0.01
  YS02001649YS02001757        1.19      1.20      1.25      0.15         0.08
  YS02001652YS02001649        1.00      1.00      1.20      0.01         0.01
  YS02001655YS02001652        0.73      0.73      0.97      0.01         0.01
  YS02001658YS02001655        0.41      0.41      0.73      0.01         0.01
  YS02001661YS02001658        0.14      0.14      0.41      0.01         0.01
  YS02001664YS02001661        0.01      0.01      0.19      0.01         0.01
  YS02001745YS02001748        0.01      0.01      0.31      0.01         0.01
  YS02001748YS02001751        0.36      0.36      0.56      0.01         0.01
  YS02001751YS02001754        0.56      0.56      0.86      0.01         0.01
  YS02001754YS02001757        0.93      0.93      1.25      0.01         0.01
  YS02001757CaochengTiaoxuchi        1.18      1.25      2.07      0.54         0.42
  YS02001759YS02001757        1.18      1.18      1.25      0.01         0.04
  YS02001762YS02001759        1.15      1.15      1.18      0.01         0.02
  YS02001765YS02001762        1.10      1.10      1.15      0.01         0.01
  YS02001767YS02001765        1.05      1.05      1.10      0.01         0.03
  YS02001770YS02001767        1.05      1.05      1.05      0.79         0.69
  YS02001774YS02001770        1.02      1.02      1.13      0.01         0.01
  YS02001779YS02001774        0.84      0.84      1.13      0.01         0.01
  YS02001783YS02001784        0.75      0.78      0.75      0.99         0.75
  YS02001784YS02001785        0.62      0.75      0.62      1.33         0.62
  YS02001786YS02001788        0.01      0.62      0.01      1.13         0.01
  YS02001790YS02001791        0.01      0.01      0.01      0.74         0.01
  YS02001793JiankangQianchi        0.01      0.01      7.70      0.01         0.01
  YS02001882YS02001884        0.71      0.71      0.72      0.01         0.01
  YS02001884YS02001887        0.75      0.75      0.77      0.01         0.01
  YS02001887YS02001890        0.79      0.79      0.80      0.21         0.01
  YS02001890YS02001895        0.70      0.70      0.82      0.01         0.01
  YS02001895YS02001898        0.69      0.69      0.70      0.01         0.01
  YS02001898YS02001901        0.70      0.70      0.75      0.01         0.01
  YS02001901YS02001904        0.74      0.74      0.75      0.01         0.01
  YS02001904YS02001907        0.74      0.74      1.11      0.01         0.01
  YS02001907YS02006553        1.35      1.35      1.44      0.01         0.01
  YS02001910YS02001907        0.82      0.82      1.07      0.08         0.09
  YS02001915YS02001910        0.71      0.71      0.82      0.01         0.01
  YS02001918YS02001915        0.60      0.60      0.71      0.01         0.01
  YS02001920YS02001918        0.60      0.60      0.62      0.01         0.01
  YS02001923YS02001920        0.55      0.55      0.62      0.01         0.01
  YS02001926YS02001923        0.23      0.23      0.28      0.01         0.01
  YS02001929YS02001926        0.10      0.10      0.28      0.01         0.01
  YS02006553YS02006556        0.94      0.94      1.11      0.01         0.01
  YS02006556YS02006558        1.03      1.03      1.13      0.01         0.01
  YS02006558YS02006561        0.64      0.93      0.64      1.25         0.64
  YS02006561YS02001783        0.57      0.57      0.78      0.01         0.01
  YS02163301YS02001633        1.36      1.36      1.39      0.01         0.01
  YS02163601YS02164001        1.33      1.33      1.41      0.12         0.01
  YS02164001YS02001641        1.33      1.33      1.33      0.91         0.85
  
  
  ***************
  Pumping Summary
  ***************
  
  ---------------------------------------------------------------------------------------------------------
                                                  Min       Avg       Max     Total     Power    % Time Off
                        Percent   Number of      Flow      Flow      Flow    Volume     Usage    Pump Curve
  Pump                 Utilized   Start-Ups       LPS       LPS       LPS  10^6 ltr     Kw-hr    Low   High
  ---------------------------------------------------------------------------------------------------------
  CC-R1                   21.92           3      0.00    683.00    683.00     4.312     82.09    0.0   13.3
  CC-R2                   23.76           5      0.00    683.00    683.00     4.674     87.83    0.0   25.5
  CC-S1                   54.09          12      0.00    200.00    200.00     3.116     18.11    0.0    0.0
  CC-S2                   36.60          12      0.00    200.00    200.00     2.108     11.87    0.0    0.0
  JK-R1                    8.45          12      0.00   1000.00   1000.00     2.432     24.82    0.0    0.0
  JK-R2                    4.74          11      0.00   1000.00   1000.00     1.365     11.58    0.0    0.0
  JK-S                    17.34          12      0.00    300.00    300.00     1.498     24.60    0.0    0.0
  

  Analysis begun on:  Wed Jan 15 10:22:57 2025
  Analysis ended on:  Wed Jan 15 10:22:59 2025
  Total elapsed time: 00:00:02