
  EPA STORM WATER MANAGEMENT MODEL - VERSION 5.2 (Build 5.2.4)
  PYSWMM TOOLKIT API - VERSION v1.0 (2023-11-27)
  ------------------------------------------------------------

  WARNING 04: minimum elevation drop used for Conduit WS02004404WS02004405
  WARNING 03: negative offset ignored for Link YS02001904YS02001907
  
  ****************
  Analysis Options
  ****************
  Flow Units ............... LPS
  Process Models:
    Rainfall/Runoff ........ YES
    RDII ................... NO
    Snowmelt ............... NO
    Groundwater ............ NO
    Flow Routing ........... YES
    Ponding Allowed ........ NO
    Water Quality .......... NO
  Infiltration Method ...... HORTON
  Flow Routing Method ...... DYNWAVE
  Surcharge Method ......... EXTRAN
  Starting Date ............ 08/28/2015 08:00:00
  Ending Date .............. 08/28/2015 16:00:00
  Antecedent Dry Days ...... 8.0
  Report Time Step ......... 00:01:00
  Wet Time Step ............ 00:01:00
  Dry Time Step ............ 00:01:00
  Routing Time Step ........ 30.00 sec
  Variable Time Step ....... YES
  Maximum Trials ........... 8
  Number of Threads ........ 4
  Head Tolerance ........... 0.001500 m
  
  
  **************************        Volume         Depth
  Runoff Quantity Continuity     hectare-m            mm
  **************************     ---------       -------
  Total Precipitation ......         2.281        68.766
  Evaporation Loss .........         0.000         0.000
  Infiltration Loss ........         0.100         3.024
  Surface Runoff ...........         2.148        64.763
  Final Storage ............         0.033         0.995
  Continuity Error (%) .....        -0.022
  
  
  **************************        Volume        Volume
  Flow Routing Continuity        hectare-m      10^6 ltr
  **************************     ---------     ---------
  Dry Weather Inflow .......         0.025         0.251
  Wet Weather Inflow .......         2.148        21.483
  Groundwater Inflow .......         0.000         0.000
  RDII Inflow ..............         0.000         0.000
  External Inflow ..........         0.083         0.834
  External Outflow .........         1.610        16.099
  Flooding Loss ............         0.712         7.119
  Evaporation Loss .........         0.000         0.000
  Exfiltration Loss ........         0.000         0.000
  Initial Stored Volume ....         0.243         2.431
  Final Stored Volume ......         0.186         1.864
  Continuity Error (%) .....        -0.331
  
  
  *************************
  Highest Continuity Errors
  *************************
  Node YS02001884 (4.84%)
  Node YS02001583 (-4.43%)
  
  
  ***************************
  Time-Step Critical Elements
  ***************************
  Link WS02006252WS02006251 (60.16%)
  Link WS02004404WS02004405 (11.47%)
  Link WS02006238WS02006235 (8.97%)
  Link WS02006235WS02006234 (4.81%)
  Link YS02001791YS02001793 (4.76%)
  
  
  ********************************
  Highest Flow Instability Indexes
  ********************************
  Link WS02006113WS02006111 (54)
  Link WS02006111WS02006112 (25)
  Link WS02004404WS02004405 (19)
  Link WS02004403WS02004404 (17)
  Link WS02004405WS02004406 (16)
  
  
  *********************************
  Most Frequent Nonconverging Nodes
  *********************************
  Node CC-1 (8.60%)
  Node CC-2 (8.60%)
  Node JK-1 (8.60%)
  Node JK-2 (8.60%)
  Node WSC (8.60%)
  
  
  *************************
  Routing Time Step Summary
  *************************
  Minimum Time Step           :     0.01 sec
  Average Time Step           :     1.59 sec
  Maximum Time Step           :     6.43 sec
  % of Time in Steady State   :     0.00
  Average Iterations per Step :     2.85
  % of Steps Not Converging   :     8.60
  Time Step Frequencies       :
     30.000 - 13.228 sec      :     0.00 %
     13.228 -  5.833 sec      :     5.79 %
      5.833 -  2.572 sec      :    11.58 %
      2.572 -  1.134 sec      :    19.05 %
      1.134 -  0.500 sec      :    63.59 %
  
  
  ***************************
  Subcatchment Runoff Summary
  ***************************
  
  ------------------------------------------------------------------------------------------------------------------------------
                            Total      Total      Total      Total     Imperv       Perv      Total       Total     Peak  Runoff
                           Precip      Runon       Evap      Infil     Runoff     Runoff     Runoff      Runoff   Runoff   Coeff
  Subcatchment                 mm         mm         mm         mm         mm         mm         mm    10^6 ltr      LPS
  ------------------------------------------------------------------------------------------------------------------------------
  sub60                     68.77       0.00       0.00       1.82      59.31       6.44      65.75        0.86   598.69   0.956
  sub61                     68.77       0.00       0.00       2.64      55.95       9.06      65.01        1.19   830.76   0.945
  sub62                     68.77       0.00       0.00       1.21      61.98       4.29      66.27        1.82  1170.62   0.964
  sub63                     68.77       0.00       0.00       4.86      47.86      15.09      62.94        1.43   935.76   0.915
  sub64                     68.77       0.00       0.00       2.46      57.25       7.86      65.11        1.56   950.97   0.947
  sub65                     68.77       0.00       0.00       2.13      58.57       6.82      65.39        1.80  1062.33   0.951
  sub66                     68.77       0.00       0.00       6.01      47.75      13.93      61.68        2.88  1390.37   0.897
  sub67                     68.77       0.00       0.00       1.17      62.02       4.34      66.36        1.23   901.74   0.965
  sub68                     68.77       0.00       0.00       2.18      57.95       7.45      65.40        1.80  1201.63   0.951
  sub69                     68.77       0.00       0.00       1.95      58.34       8.37      66.71        2.47  1413.64   0.970
  sub70                     68.77       0.00       0.00       6.50      45.22      16.89      62.11        1.79   781.26   0.903
  sub71                     68.77       0.00       0.00       1.24      61.94       4.26      66.20        1.73  1026.70   0.963
  sub72                     68.77       0.00       0.00       1.11      62.55       3.71      66.26        0.91   498.38   0.964
  
  
  ******************
  Node Depth Summary
  ******************
  
  ---------------------------------------------------------------------------------
                                 Average  Maximum  Maximum  Time of Max    Reported
                                   Depth    Depth      HGL   Occurrence   Max Depth
  Node                 Type       Meters   Meters   Meters  days hr:min      Meters
  ---------------------------------------------------------------------------------
  WS02003060           JUNCTION     0.25     0.38     5.32     0  02:58        0.38
  WS02003066           JUNCTION     0.21     0.30     5.85     0  02:57        0.30
  WS02003067           JUNCTION     0.53     0.70     6.02     0  02:57        0.70
  WS02003069           JUNCTION     0.28     0.43     5.02     0  02:58        0.43
  WS02003072           JUNCTION     0.35     0.50     4.87     0  02:56        0.50
  WS02003073           JUNCTION     0.20     0.30     4.36     0  02:57        0.30
  WS02004401           JUNCTION     0.62     0.88     6.88     0  02:50        0.88
  WS02004402           JUNCTION     0.66     0.91     6.87     0  02:49        0.90
  WS02004403           JUNCTION     0.68     0.93     6.86     0  02:49        0.92
  WS02004404           JUNCTION     0.75     1.06     6.91     0  02:49        1.02
  WS02004405           JUNCTION     0.74     0.97     6.82     0  02:49        0.97
  WS02004406           JUNCTION     0.75     0.96     6.79     0  02:52        0.96
  WS02004407           JUNCTION     0.19     0.30     6.61     0  02:52        0.30
  WS02004409           JUNCTION     0.43     0.67     6.44     0  02:56        0.67
  WS02004410           JUNCTION     0.45     0.68     6.40     0  02:56        0.68
  WS02004411           JUNCTION     0.47     0.69     6.37     0  02:56        0.69
  WS02004412           JUNCTION     0.49     0.70     6.34     0  02:57        0.70
  WS02004413           JUNCTION     0.65     0.86     6.33     0  02:57        0.86
  WS02006109           JUNCTION     0.68     1.24     7.85     0  02:26        1.02
  WS02006110           JUNCTION     0.68     1.33     7.91     0  02:26        1.03
  WS02006111           JUNCTION     0.19     0.29     6.99     0  01:45        0.29
  WS02006112           JUNCTION     0.78     1.09     6.97     0  02:44        1.07
  WS02006113           JUNCTION     0.29     0.46     7.35     0  01:45        0.46
  WS02006115           JUNCTION     0.51     0.78     6.92     0  02:50        0.78
  WS02006116           JUNCTION     0.60     0.86     6.90     0  02:50        0.86
  WS02006228           JUNCTION     0.67     1.46     8.11     0  02:25        1.05
  WS02006229           JUNCTION     0.64     1.55     8.24     0  02:25        1.19
  WS02006230           JUNCTION     0.64     1.83     8.58     0  02:25        1.25
  WS02006231           JUNCTION     0.45     1.48     8.60     0  02:25        0.96
  WS02006232           JUNCTION     0.59     1.73     8.77     0  03:55        1.12
  WS02006234           JUNCTION     0.51     1.82     8.98     0  03:55        1.16
  WS02006235           JUNCTION     0.55     2.00     9.16     0  03:29        2.00
  WS02006238           JUNCTION     0.58     2.15     9.29     0  03:29        2.15
  WS02006239           JUNCTION     0.54     2.03     9.24     0  03:29        2.03
  WS02006240           JUNCTION     0.51     2.10     9.39     0  03:29        2.10
  WS02006242           JUNCTION     0.58     1.55     8.82     0  01:56        1.55
  WS02006243           JUNCTION     0.48     1.36     8.78     0  02:25        1.20
  WS02006245           JUNCTION     0.48     1.27     8.75     0  03:29        1.16
  WS02006247           JUNCTION     0.50     1.24     8.74     0  03:29        1.17
  WS02006248           JUNCTION     0.46     1.10     8.69     0  02:12        1.10
  WS02006249           JUNCTION     0.49     1.09     8.69     0  01:41        1.09
  WS02006251           JUNCTION     0.49     1.44     9.11     0  01:42        1.44
  WS02006252           JUNCTION     0.37     1.50     9.74     0  00:00        1.02
  WS02006256           JUNCTION     0.99     2.35     9.28     0  00:00        2.35
  WSF200               JUNCTION     0.18     0.29     5.52     0  02:54        0.29
  YS02001580           JUNCTION     0.07     1.05     9.59     0  01:53        0.77
  YS02001583           JUNCTION     0.11     1.14     9.64     0  01:53        0.82
  YS02001586           JUNCTION     0.16     1.13     9.30     0  01:53        1.13
  YS02001590           JUNCTION     0.25     1.40     9.26     0  01:53        1.37
  YS02001593           JUNCTION     0.19     1.33     9.20     0  01:53        1.29
  YS02001596           JUNCTION     0.25     1.68     9.10     0  01:53        1.66
  YS02001600           JUNCTION     0.30     1.87     9.00     0  01:53        1.86
  YS02001601           JUNCTION     0.48     2.06     8.90     0  01:52        2.06
  YS02001602           JUNCTION     0.40     1.87     8.77     0  01:52        1.87
  YS02001605           JUNCTION     0.37     1.78     8.68     0  01:52        1.78
  YS02001607           JUNCTION     0.38     1.68     8.53     0  01:53        1.65
  YS02001610           JUNCTION     0.42     1.68     8.48     0  01:52        1.68
  YS02001613           JUNCTION     0.38     1.69     8.53     0  01:52        1.66
  YS02001616           JUNCTION     0.31     1.61     8.52     0  01:52        1.60
  YS02001619           JUNCTION     0.29     1.61     8.54     0  01:52        1.59
  YS02001622           JUNCTION     0.28     1.62     8.52     0  01:52        1.57
  YS02001625           JUNCTION     0.55     1.78     8.38     0  01:53        1.78
  YS02001629           JUNCTION     0.38     1.85     8.40     0  01:53        1.85
  YS02001633           JUNCTION     0.46     2.03     8.49     0  01:57        2.01
  YS02001641           JUNCTION     0.45     1.95     8.39     0  02:00        1.94
  YS02001644           JUNCTION     0.45     1.92     8.35     0  01:58        1.92
  YS02001647           JUNCTION     0.25     1.77     8.38     0  01:59        1.74
  YS02001649           JUNCTION     0.28     2.00     8.39     0  01:59        1.95
  YS02001652           JUNCTION     0.19     1.90     8.50     0  01:59        1.79
  YS02001655           JUNCTION     0.14     1.83     8.68     0  01:58        1.59
  YS02001658           JUNCTION     0.10     1.78     8.92     0  01:58        1.36
  YS02001661           JUNCTION     0.14     1.42     8.82     0  01:59        1.14
  YS02001664           JUNCTION     0.05     0.63     8.55     0  01:59        0.57
  YS02001745           JUNCTION     0.05     0.83     8.35     0  01:59        0.81
  YS02001748           JUNCTION     0.10     1.75     8.83     0  01:58        1.24
  YS02001751           JUNCTION     0.12     1.72     8.60     0  01:58        1.43
  YS02001754           JUNCTION     0.16     1.77     8.38     0  01:58        1.66
  YS02001757           JUNCTION     0.30     2.01     8.27     0  01:58        2.01
  YS02001759           JUNCTION     0.25     2.01     8.37     0  02:00        2.01
  YS02001762           JUNCTION     0.24     2.15     8.55     0  02:06        2.15
  YS02001765           JUNCTION     0.22     2.10     8.55     0  02:06        2.10
  YS02001767           JUNCTION     0.22     1.93     8.42     0  02:00        1.90
  YS02001770           JUNCTION     0.23     1.95     8.44     0  01:58        1.92
  YS02001774           JUNCTION     0.30     2.01     8.43     0  01:58        1.97
  YS02001779           JUNCTION     0.15     1.68     8.37     0  01:57        1.68
  YS02001783           JUNCTION     0.20     1.42     7.56     0  01:56        1.27
  YS02001784           JUNCTION     0.22     1.21     7.28     0  01:56        1.16
  YS02001786           JUNCTION     0.18     0.99     7.02     0  01:56        0.87
  YS02001788           JUNCTION     0.13     0.62     6.60     0  02:00        0.62
  YS02001790           JUNCTION     0.15     0.72     6.37     0  02:06        0.72
  YS02001791           JUNCTION     0.10     0.44     5.91     0  02:01        0.43
  YS02001793           JUNCTION     0.05     0.30     5.13     0  02:06        0.29
  YS02001882           JUNCTION     0.26     1.83     8.55     0  01:55        1.83
  YS02001884           JUNCTION     0.35     1.93     8.55     0  01:55        1.93
  YS02001887           JUNCTION     0.43     2.00     8.54     0  01:55        2.00
  YS02001890           JUNCTION     0.46     1.81     8.32     0  01:55        1.81
  YS02001895           JUNCTION     0.23     1.75     8.50     0  01:55        1.75
  YS02001898           JUNCTION     0.24     1.77     8.51     0  01:55        1.77
  YS02001901           JUNCTION     0.35     1.87     8.48     0  01:55        1.87
  YS02001904           JUNCTION     0.33     1.85     8.48     0  01:55        1.85
  YS02001907           JUNCTION     0.66     1.96     8.25     0  01:55        1.96
  YS02001910           JUNCTION     0.45     2.03     8.54     0  01:57        1.91
  YS02001915           JUNCTION     0.26     2.00     8.72     0  01:57        1.82
  YS02001918           JUNCTION     0.14     1.81     8.88     0  01:57        1.51
  YS02001920           JUNCTION     0.21     2.14     9.15     0  01:57        1.58
  YS02001923           JUNCTION     0.10     2.03     9.29     0  01:57        1.35
  YS02001926           JUNCTION     0.14     1.90     9.35     0  01:57        1.18
  YS02001929           JUNCTION     0.07     1.78     9.47     0  01:57        0.95
  YS02006553           JUNCTION     0.66     2.01     8.29     0  01:56        1.98
  YS02006556           JUNCTION     0.63     2.03     8.34     0  01:56        1.95
  YS02006558           JUNCTION     0.68     2.08     8.34     0  01:56        2.00
  YS02006561           JUNCTION     0.12     1.15     7.81     0  01:56        0.91
  YS02163301           JUNCTION     0.41     1.93     8.45     0  02:25        1.93
  YS02163601           JUNCTION     0.50     2.05     8.45     0  01:57        2.01
  YS02164001           JUNCTION     0.44     1.97     8.42     0  01:57        1.93
  CC-1                 OUTFALL      0.00     0.00     0.00     0  00:00        0.00
  CC-2                 OUTFALL      0.00     0.00     0.00     0  00:00        0.00
  JK-1                 OUTFALL      0.00     0.00     0.00     0  00:00        0.00
  JK-2                 OUTFALL      0.00     0.00     0.00     0  00:00        0.00
  WSC                  OUTFALL      0.20     0.30     0.97     0  02:57        0.30
  CC-storage           STORAGE      0.82     1.66     7.16     0  02:31        1.66
  JK-storage           STORAGE      2.91     4.24     5.04     0  01:59        4.22
  
  
  *******************
  Node Inflow Summary
  *******************
  
  -------------------------------------------------------------------------------------------------
                                  Maximum  Maximum                  Lateral       Total        Flow
                                  Lateral    Total  Time of Max      Inflow      Inflow     Balance
                                   Inflow   Inflow   Occurrence      Volume      Volume       Error
  Node                 Type           LPS      LPS  days hr:min    10^6 ltr    10^6 ltr     Percent
  -------------------------------------------------------------------------------------------------
  WS02003060           JUNCTION     16.53   556.02     0  02:57       0.476        6.52       0.029
  WS02003066           JUNCTION      0.00   539.39     0  02:57           0        6.04       0.021
  WS02003067           JUNCTION      0.00   539.31     0  02:57           0        6.05       0.066
  WS02003069           JUNCTION      0.32   556.41     0  02:58     0.00922        6.53       0.054
  WS02003072           JUNCTION      0.00   555.98     0  02:59           0        6.52       0.098
  WS02003073           JUNCTION      1.82   557.54     0  02:56      0.0524        6.57       0.076
  WS02004401           JUNCTION      0.00   543.43     0  02:37           0        6.14       0.161
  WS02004402           JUNCTION      0.00   544.97     0  02:50           0        6.13       0.164
  WS02004403           JUNCTION      0.00   550.56     0  02:50           0        6.12       0.159
  WS02004404           JUNCTION      0.16   563.30     0  02:50     0.00467        6.12       0.148
  WS02004405           JUNCTION      0.04   605.50     0  02:09      0.0011        6.11       0.107
  WS02004406           JUNCTION      0.00   549.58     0  02:49           0         6.1       0.333
  WS02004407           JUNCTION      0.00   541.43     0  02:52           0        6.08       0.014
  WS02004409           JUNCTION      0.00   540.77     0  02:52           0        6.08       0.036
  WS02004410           JUNCTION      0.00   540.05     0  02:52           0        6.08       0.065
  WS02004411           JUNCTION      0.00   539.70     0  02:56           0        6.07       0.084
  WS02004412           JUNCTION      0.00   539.79     0  02:56           0        6.07       0.115
  WS02004413           JUNCTION      0.00   539.50     0  02:57           0        6.06       0.210
  WS02006109           JUNCTION      1.23   562.16     0  02:25      0.0354        6.18       0.103
  WS02006110           JUNCTION      0.00   562.72     0  02:25           0        6.17       0.098
  WS02006111           JUNCTION      0.00   563.96     0  01:45           0        6.17       0.010
  WS02006112           JUNCTION      0.00   544.24     0  01:45           0        6.17       0.302
  WS02006113           JUNCTION      0.00   569.14     0  02:26           0        6.17       0.027
  WS02006115           JUNCTION      0.00   555.87     0  02:27           0        6.15       0.104
  WS02006116           JUNCTION      0.00   542.60     0  02:51           0        6.14       0.020
  WS02006228           JUNCTION      0.00   560.07     0  02:25           0        6.15       0.029
  WS02006229           JUNCTION      0.00   559.65     0  02:25           0        6.15       0.069
  WS02006230           JUNCTION     10.28   601.03     0  03:29       0.296        6.15       0.032
  WS02006231           JUNCTION      0.00   622.57     0  03:29           0        5.86       0.038
  WS02006232           JUNCTION      0.00   617.33     0  03:29           0        5.87       0.099
  WS02006234           JUNCTION      0.00   599.18     0  03:29           0        5.86      -0.104
  WS02006235           JUNCTION      0.00   567.99     0  03:29           0        5.89       0.096
  WS02006238           JUNCTION      0.00   423.35     0  02:20           0        4.86      -0.195
  WS02006239           JUNCTION      0.00   423.05     0  02:20           0        4.84      -0.176
  WS02006240           JUNCTION      0.00   422.77     0  03:35           0        4.83      -0.045
  WS02006242           JUNCTION      0.00   422.10     0  03:35           0        4.82      -0.015
  WS02006243           JUNCTION      0.00   422.01     0  03:35           0        4.82      -0.076
  WS02006245           JUNCTION      0.00   422.91     0  03:35           0        4.82       0.201
  WS02006247           JUNCTION      0.00   423.84     0  03:35           0        4.82       0.010
  WS02006248           JUNCTION      0.00   424.30     0  03:35           0        4.82       0.023
  WS02006249           JUNCTION      0.00   459.02     0  00:00           0        5.08       0.128
  WS02006251           JUNCTION      0.08   412.78     0  01:42     0.00222        5.08       0.001
  WS02006252           JUNCTION      0.00   400.00     0  00:00           0        5.07      -0.076
  WS02006256           JUNCTION      0.00   300.00     0  00:00           0        1.51      -0.531
  WSF200               JUNCTION      0.00   539.44     0  02:57           0        6.04       0.005
  YS02001580           JUNCTION      0.00   136.80     0  01:53           0     0.00428      -0.819
  YS02001583           JUNCTION      0.00   165.68     0  01:53           0      0.0154      -4.241
  YS02001586           JUNCTION    781.26   781.45     0  02:04        1.79        1.81       0.069
  YS02001590           JUNCTION      0.00   318.01     0  02:20           0        1.38      -0.028
  YS02001593           JUNCTION      0.00   318.05     0  02:16           0        1.38      -0.005
  YS02001596           JUNCTION      0.00   318.08     0  02:08           0        1.38      -0.004
  YS02001600           JUNCTION      0.00   318.03     0  02:08           0        1.38       0.007
  YS02001601           JUNCTION   1413.64  1731.11     0  02:03        2.47        3.85       0.012
  YS02001602           JUNCTION      0.00   519.07     0  01:52           0        2.33       0.013
  YS02001605           JUNCTION      0.00   519.23     0  01:52           0         2.2       0.013
  YS02001607           JUNCTION      0.00   519.35     0  01:52           0         2.2       0.087
  YS02001610           JUNCTION      0.00   774.58     0  02:04           0        2.47       0.089
  YS02001613           JUNCTION      0.00   527.53     0  01:52           0        1.98       0.084
  YS02001616           JUNCTION      0.00   528.60     0  01:52           0        1.98       0.016
  YS02001619           JUNCTION   1390.37  1390.37     0  02:04        2.88        4.58      -0.002
  YS02001622           JUNCTION      0.00   968.68     0  02:02           0        4.31      -0.002
  YS02001625           JUNCTION      0.00  1364.35     0  02:05           0        4.52       0.200
  YS02001629           JUNCTION      0.00   927.36     0  01:55           0        3.54       0.015
  YS02001633           JUNCTION   1062.53  1394.67     0  01:56        1.81        5.07       0.067
  YS02001641           JUNCTION      0.00  1392.31     0  01:56           0         4.8       0.054
  YS02001644           JUNCTION    951.01  1814.98     0  01:56        1.57        6.36       0.051
  YS02001647           JUNCTION      0.00  1814.65     0  01:56           0        5.88       0.004
  YS02001649           JUNCTION      0.00  2062.18     0  01:56           0        7.32       0.001
  YS02001652           JUNCTION      0.00   960.31     0  02:02           0        1.43      -0.060
  YS02001655           JUNCTION      0.15   960.73     0  02:02     0.00443        1.43      -0.066
  YS02001658           JUNCTION      0.00   960.86     0  02:02           0        1.43      -0.031
  YS02001661           JUNCTION      0.00   957.90     0  02:02           0        1.43       0.006
  YS02001664           JUNCTION    935.76   935.76     0  02:02        1.43        1.43      -0.007
  YS02001745           JUNCTION    598.69   598.69     0  02:02       0.864       0.864       0.176
  YS02001748           JUNCTION      0.04   613.17     0  02:01      0.0013       0.864      -0.267
  YS02001751           JUNCTION      0.01   613.57     0  02:01    0.000317       0.872       0.098
  YS02001754           JUNCTION      0.26   614.82     0  02:01     0.00749       0.883      -0.179
  YS02001757           JUNCTION      0.00  3533.69     0  02:00           0          11       0.041
  YS02001759           JUNCTION    830.80  1447.52     0  02:00        1.19         2.8      -0.011
  YS02001762           JUNCTION      0.00   793.55     0  01:58           0        1.61      -0.003
  YS02001765           JUNCTION      0.00   795.09     0  01:58           0        1.61       0.003
  YS02001767           JUNCTION      0.54   795.16     0  01:58      0.0154        1.61       0.001
  YS02001770           JUNCTION   1170.77  1170.77     0  02:02        1.82        1.86      -0.007
  YS02001774           JUNCTION      0.00   604.42     0  02:02           0       0.287       0.346
  YS02001779           JUNCTION      0.01   604.81     0  02:02    0.000144       0.244      -0.314
  YS02001783           JUNCTION      0.00  1167.67     0  02:00           0        4.17       0.006
  YS02001784           JUNCTION      1.06  1169.46     0  02:00      0.0305         4.2       0.012
  YS02001786           JUNCTION      0.06  1169.32     0  02:00     0.00162         4.2       0.015
  YS02001788           JUNCTION      0.07  1170.32     0  02:00     0.00204         4.2       0.007
  YS02001790           JUNCTION      0.15  1181.98     0  01:59     0.00446         4.2       0.027
  YS02001791           JUNCTION      0.00  1289.99     0  02:06           0         4.2      -0.028
  YS02001793           JUNCTION      0.00  1240.18     0  02:03           0         4.2       0.006
  YS02001882           JUNCTION      0.00    67.77     0  01:54           0      0.0128       4.003
  YS02001884           JUNCTION      0.00    84.30     0  01:54           0      0.0487       5.085
  YS02001887           JUNCTION    902.19   902.40     0  02:01        1.25        1.28       0.340
  YS02001890           JUNCTION      0.00   901.76     0  02:01           0        1.24       0.402
  YS02001895           JUNCTION      0.00   518.72     0  02:06           0        1.11       0.140
  YS02001898           JUNCTION      0.00   518.65     0  02:06           0        1.11       0.003
  YS02001901           JUNCTION      0.00   517.24     0  02:04           0        1.11       0.287
  YS02001904           JUNCTION      0.00   517.47     0  02:06           0        1.11       0.239
  YS02001907           JUNCTION      0.00  2089.89     0  02:02           0        3.83       0.465
  YS02001910           JUNCTION      0.00  1544.01     0  02:02           0        2.72       0.260
  YS02001915           JUNCTION   1026.72  1543.57     0  02:02        1.73        2.76       0.057
  YS02001918           JUNCTION      0.00   516.83     0  02:02           0        1.06      -0.002
  YS02001920           JUNCTION      2.87   516.90     0  02:02      0.0827        1.05       0.072
  YS02001923           JUNCTION      0.04   512.39     0  02:02     0.00109       0.946      -0.062
  YS02001926           JUNCTION      0.05   564.23     0  01:56      0.0015       0.926      -0.157
  YS02001929           JUNCTION    498.38   498.38     0  02:03       0.911       0.913      -0.014
  YS02006553           JUNCTION      0.00   798.99     0  02:20           0         2.4       0.494
  YS02006556           JUNCTION      0.00   798.73     0  02:20           0         2.4       0.327
  YS02006558           JUNCTION   1202.51  1202.51     0  02:02        1.83         4.2       0.089
  YS02006561           JUNCTION      0.00  1178.51     0  01:56           0        4.17      -0.007
  YS02163301           JUNCTION      0.00   927.33     0  01:55           0        3.53       0.040
  YS02163601           JUNCTION      0.11  1394.21     0  01:56     0.00317         4.8       0.101
  YS02164001           JUNCTION      0.00  1393.47     0  01:56           0         4.8       0.041
  CC-1                 OUTFALL       0.00   683.00     0  00:00           0        3.17       0.000
  CC-2                 OUTFALL       0.00   683.00     0  00:00           0        3.59       0.000
  JK-1                 OUTFALL       0.00  1000.00     0  00:00           0        1.68       0.000
  JK-2                 OUTFALL       0.00  1000.00     0  00:00           0        1.09       0.000
  WSC                  OUTFALL       0.00   557.31     0  02:57           0        6.56       0.000
  CC-storage           STORAGE       0.00  3533.38     0  02:00           0        13.2      -0.230
  JK-storage           STORAGE       0.00  1282.03     0  02:00           0        4.35      -0.243
  
  
  **********************
  Node Surcharge Summary
  **********************
  
  Surcharging occurs when water rises above the top of the highest conduit.
  ---------------------------------------------------------------------
                                               Max. Height   Min. Depth
                                   Hours       Above Crown    Below Rim
  Node                 Type      Surcharged         Meters       Meters
  ---------------------------------------------------------------------
  WS02004404           JUNCTION        0.06          0.064        2.716
  WS02006109           JUNCTION        2.13          0.415        1.405
  WS02006110           JUNCTION        0.88          0.417        1.433
  WS02006112           JUNCTION        0.95          0.087        1.593
  WS02006228           JUNCTION        2.12          0.627        1.573
  WS02006229           JUNCTION        2.13          0.747        1.703
  WS02006230           JUNCTION        0.89          0.750        0.820
  WS02006231           JUNCTION        0.98          0.766        0.764
  WS02006232           JUNCTION        2.18          1.033        0.447
  WS02006234           JUNCTION        1.38          1.104        0.136
  WS02006235           JUNCTION        2.11          1.290        0.000
  WS02006238           JUNCTION        2.15          1.430        0.000
  WS02006239           JUNCTION        2.11          1.290        0.000
  WS02006240           JUNCTION        2.12          1.390        0.000
  WS02006242           JUNCTION        2.16          0.820        0.000
  WS02006243           JUNCTION        2.05          0.648        0.122
  WS02006245           JUNCTION        2.04          0.555        0.295
  WS02006247           JUNCTION        2.04          0.528        0.232
  WS02006248           JUNCTION        2.02          0.380        0.000
  WS02006249           JUNCTION        2.02          0.390        0.000
  WS02006251           JUNCTION        1.04          0.412        0.768
  WS02006252           JUNCTION        2.51          1.100        0.000
  WS02006256           JUNCTION        6.03          2.050        0.000
  YS02001580           JUNCTION        0.66          0.450        0.000
  YS02001583           JUNCTION        0.67          0.500        0.000
  YS02001586           JUNCTION        0.79          0.510        0.000
  YS02001590           JUNCTION        0.87          0.750        0.000
  YS02001593           JUNCTION        0.87          0.715        0.125
  YS02001596           JUNCTION        0.99          0.953        0.117
  YS02001600           JUNCTION        1.15          1.190        0.000
  YS02001601           JUNCTION        1.49          1.440        0.000
  YS02001602           JUNCTION        1.39          1.270        0.000
  YS02001605           JUNCTION        1.35          1.180        0.000
  YS02001607           JUNCTION        0.86          0.680        0.000
  YS02001610           JUNCTION        0.88          0.680        0.000
  YS02001613           JUNCTION        0.85          0.694        0.006
  YS02001616           JUNCTION        0.80          0.610        0.000
  YS02001619           JUNCTION        0.79          0.610        0.000
  YS02001622           JUNCTION        0.79          0.620        0.000
  YS02001625           JUNCTION        0.98          0.780        0.000
  YS02001629           JUNCTION        0.74          0.470        0.000
  YS02001633           JUNCTION        1.00          1.012        0.048
  YS02001641           JUNCTION        0.94          0.954        0.146
  YS02001644           JUNCTION        0.92          0.920        0.000
  YS02001647           JUNCTION        0.70          0.775        0.125
  YS02001649           JUNCTION        0.82          1.003        0.047
  YS02001652           JUNCTION        0.61          0.871        0.259
  YS02001655           JUNCTION        0.44          0.832        0.368
  YS02001658           JUNCTION        0.23          0.778        0.522
  YS02001661           JUNCTION        0.05          0.348        1.042
  YS02001748           JUNCTION        0.18          0.671        0.519
  YS02001751           JUNCTION        0.32          0.725        0.475
  YS02001754           JUNCTION        0.51          0.721        0.429
  YS02001757           JUNCTION        0.89          1.010        0.200
  YS02001759           JUNCTION        0.79          1.006        0.204
  YS02001762           JUNCTION        0.75          1.150        0.000
  YS02001765           JUNCTION        0.71          1.100        0.000
  YS02001767           JUNCTION        0.67          0.932        0.098
  YS02001770           JUNCTION        0.64          0.920        0.000
  YS02001774           JUNCTION        0.74          1.008        0.042
  YS02001779           JUNCTION        0.51          0.680        0.000
  YS02001783           JUNCTION        0.57          0.623        0.977
  YS02001784           JUNCTION        0.55          0.413        1.077
  YS02001786           JUNCTION        0.44          0.195        1.235
  YS02001882           JUNCTION        0.51          0.830        0.000
  YS02001884           JUNCTION        0.53          0.870        0.000
  YS02001887           JUNCTION        0.56          0.950        0.000
  YS02001890           JUNCTION        0.58          0.760        0.000
  YS02001895           JUNCTION        0.50          0.750        0.000
  YS02001898           JUNCTION        0.50          0.740        0.000
  YS02001901           JUNCTION        0.55          0.870        0.000
  YS02001904           JUNCTION        0.54          0.850        0.000
  YS02001907           JUNCTION        0.80          0.950        0.000
  YS02001910           JUNCTION        0.60          1.032        0.068
  YS02001915           JUNCTION        0.51          1.000        0.000
  YS02001918           JUNCTION        0.43          0.810        0.000
  YS02001920           JUNCTION        0.44          1.140        0.000
  YS02001923           JUNCTION        0.13          0.820        0.000
  YS02001926           JUNCTION        0.16          0.900        0.000
  YS02001929           JUNCTION        0.01          0.780        0.000
  YS02006553           JUNCTION        0.81          1.009        0.181
  YS02006556           JUNCTION        0.70          0.985        0.365
  YS02006558           JUNCTION        0.68          0.976        0.424
  YS02006561           JUNCTION        0.39          0.354        0.796
  YS02163301           JUNCTION        0.99          0.933        0.097
  YS02163601           JUNCTION        1.04          1.052        0.028
  YS02164001           JUNCTION        0.95          0.965        0.135
  
  
  *********************
  Node Flooding Summary
  *********************
  
  Flooding refers to all water that overflows a node, whether it ponds or not.
  --------------------------------------------------------------------------
                                                             Total   Maximum
                                 Maximum   Time of Max       Flood    Ponded
                        Hours       Rate    Occurrence      Volume     Depth
  Node                 Flooded       LPS   days hr:min    10^6 ltr    Meters
  --------------------------------------------------------------------------
  WS02006235              0.01     17.40      0  03:29       0.000     0.000
  WS02006238              0.01     13.15      0  03:29       0.000     0.000
  WS02006239              0.01      5.15      0  03:29       0.000     0.000
  WS02006240              0.01     13.39      0  03:29       0.000     0.000
  WS02006242              0.01     62.14      0  01:56       0.000     0.000
  WS02006248              0.01     23.49      0  03:29       0.000     0.000
  WS02006249              1.01    111.61      0  01:42       0.250     0.000
  WS02006252              0.01    245.63      0  00:00       0.000     0.000
  WS02006256              1.39    293.19      0  00:00       0.478     0.000
  YS02001580              0.01    124.93      0  01:53       0.000     0.000
  YS02001583              0.01     52.15      0  01:53       0.000     0.000
  YS02001586              0.53    463.75      0  02:04       0.418     0.000
  YS02001590              0.01      1.05      0  01:53       0.000     0.000
  YS02001600              0.01      0.65      0  01:53       0.000     0.000
  YS02001601              0.72   1333.24      0  02:03       1.519     0.000
  YS02001602              0.60     62.01      0  02:26       0.123     0.000
  YS02001605              0.01      2.86      0  01:53       0.000     0.000
  YS02001607              0.01     28.03      0  01:53       0.000     0.000
  YS02001610              0.53    774.24      0  02:04       0.766     0.000
  YS02001616              0.01     48.01      0  01:53       0.000     0.000
  YS02001619              0.01     22.46      0  01:52       0.000     0.000
  YS02001622              0.01     81.87      0  01:52       0.000     0.000
  YS02001625              0.49   1364.26      0  02:05       1.240     0.000
  YS02001629              0.13    249.98      0  02:00       0.064     0.000
  YS02001644              0.21   1083.30      0  02:02       0.467     0.000
  YS02001762              0.01      0.86      0  02:06       0.000     0.000
  YS02001765              0.01      0.66      0  02:06       0.000     0.000
  YS02001770              0.01     14.47      0  01:58       0.000     0.000
  YS02001779              0.18    604.24      0  02:02       0.226     0.000
  YS02001882              0.01     25.14      0  01:55       0.000     0.000
  YS02001884              0.01     20.71      0  01:55       0.000     0.000
  YS02001887              0.01      8.75      0  01:55       0.000     0.000
  YS02001890              0.19    386.54      0  02:01       0.128     0.000
  YS02001895              0.01      6.21      0  01:55       0.000     0.000
  YS02001898              0.01      9.26      0  01:55       0.000     0.000
  YS02001901              0.01      4.56      0  01:55       0.000     0.000
  YS02001904              0.01      4.03      0  01:55       0.000     0.000
  YS02001907              0.37   2089.09      0  02:02       1.435     0.000
  YS02001915              0.01      6.90      0  01:57       0.000     0.000
  YS02001918              0.01    153.23      0  01:57       0.002     0.000
  YS02001920              0.01     36.82      0  01:57       0.000     0.000
  YS02001923              0.01     36.44      0  01:57       0.000     0.000
  YS02001926              0.01    348.91      0  01:57       0.002     0.000
  YS02001929              0.01     97.30      0  01:57       0.000     0.000
  
  
  **********************
  Storage Volume Summary
  **********************
  
  ------------------------------------------------------------------------------------------------
                         Average    Avg   Evap  Exfil     Maximum    Max    Time of Max    Maximum
                          Volume   Pcnt   Pcnt   Pcnt      Volume   Pcnt     Occurrence    Outflow
  Storage Unit           1000 m³   Full   Loss   Loss     1000 m³   Full    days hr:min        LPS
  ------------------------------------------------------------------------------------------------
  CC-storage               2.282   35.6    0.0    0.0       4.640   72.4       0  02:31    1783.53
  JK-storage               0.146   50.3    0.0    0.0       0.213   73.1       0  01:59    2300.00
  
  
  ***********************
  Outfall Loading Summary
  ***********************
  
  -----------------------------------------------------------
                         Flow       Avg       Max       Total
                         Freq      Flow      Flow      Volume
  Outfall Node           Pcnt       LPS       LPS    10^6 ltr
  -----------------------------------------------------------
  CC-1                  13.86    683.00    683.00       3.171
  CC-2                  18.93    683.00    683.00       3.591
  JK-1                   5.86   1000.00   1000.00       1.681
  JK-2                   4.09   1000.00   1000.00       1.091
  WSC                   99.97    278.03    557.31       6.564
  -----------------------------------------------------------
  System                28.54   3644.03   3923.03      16.099
  
  
  ********************
  Link Flow Summary
  ********************
  
  -----------------------------------------------------------------------------
                                 Maximum  Time of Max   Maximum    Max/    Max/
                                  |Flow|   Occurrence   |Veloc|    Full    Full
  Link                 Type          LPS  days hr:min     m/sec    Flow   Depth
  -----------------------------------------------------------------------------
  1                    CONDUIT    557.31     0  02:57      2.83    0.19    0.30
  WS02003060WS02003069 CONDUIT    556.09     0  02:58      1.64    0.22    0.34
  WS02003066WSF200     CONDUIT    539.44     0  02:57      2.85    0.09    0.22
  WS02003067WS02003066 CONDUIT    539.39     0  02:57      1.21    0.17    0.42
  WS02003069WS02003072 CONDUIT    555.98     0  02:59      1.37    0.27    0.39
  WS02003072WS02003073 CONDUIT    555.72     0  02:56      1.44    1.20    0.37
  WS02004401WS02004402 CONDUIT    544.97     0  02:50      1.07    0.65    0.89
  WS02004402WS02004403 CONDUIT    550.56     0  02:50      1.09    0.79    0.92
  WS02004403WS02004404 CONDUIT    563.14     0  02:50      1.06    0.41    0.96
  WS02004404WS02004405 CONDUIT    605.46     0  02:09      1.24    5.93    0.98
  WS02004405WS02004406 CONDUIT    549.58     0  02:49      1.20    1.08    0.96
  WS02004406WS02004407 CONDUIT    541.43     0  02:52      1.04    0.24    0.63
  WS02004407WS02004409 CONDUIT    540.77     0  02:52      1.59    0.19    0.48
  WS02004409WS02004410 CONDUIT    540.05     0  02:52      1.05    0.70    0.68
  WS02004410WS02004411 CONDUIT    539.70     0  02:56      1.01    0.74    0.69
  WS02004411WS02004412 CONDUIT    539.79     0  02:56      0.99    0.77    0.70
  WS02004412WS02004413 CONDUIT    539.50     0  02:57      0.82    0.36    0.78
  WS02004413WS02003067 CONDUIT    539.31     0  02:57      1.11    0.23    0.59
  WS02006109WS02006110 CONDUIT    562.72     0  02:25      1.12    1.08    1.00
  WS02006110WS02006113 CONDUIT    569.14     0  02:26      1.38    0.52    0.79
  WS02006111WS02006112 CONDUIT    544.24     0  01:45      1.85    0.26    0.67
  WS02006112WS02006115 CONDUIT    555.87     0  02:27      0.88    0.33    0.88
  WS02006113WS02006111 CONDUIT    563.96     0  01:45      2.47    0.68    0.46
  WS02006115WS02006116 CONDUIT    542.60     0  02:51      1.15    0.70    0.79
  WS02006116WS02004401 CONDUIT    543.43     0  02:37      1.07    0.75    0.87
  WS02006228WS02006109 CONDUIT    560.93     0  02:25      1.12    2.45    1.00
  WS02006229WS02006228 CONDUIT    560.07     0  02:25      1.11    1.86    1.00
  WS02006230WS02006229 CONDUIT    559.65     0  02:25      1.45   12.45    1.00
  WS02006231WS02006230 CONDUIT    590.75     0  03:29      1.60    8.96    1.00
  WS02006232WS02006231 CONDUIT    622.57     0  03:29      1.63    1.30    1.00
  WS02006234WS02006232 CONDUIT    617.33     0  03:29      1.60    1.25    1.00
  WS02006235WS02006234 CONDUIT    599.18     0  03:29      1.56    6.32    1.00
  WS02006238WS02006235 CONDUIT    422.06     0  02:55      1.45    0.94    1.00
  WS02006239WS02006238 CONDUIT    423.35     0  02:20      1.10    1.35    1.00
  WS02006240WS02006239 CONDUIT    423.05     0  02:20      1.24    1.33    1.00
  WS02006242WS02006240 CONDUIT    422.77     0  03:35      1.13    1.68    1.00
  WS02006243WS02006242 CONDUIT    422.10     0  03:35      1.40    0.90    1.00
  WS02006245WS02006243 CONDUIT    422.01     0  03:35      1.45    1.25    1.00
  WS02006247WS02006245 CONDUIT    422.91     0  03:35      1.43    3.35    1.00
  WS02006248WS02006247 CONDUIT    423.84     0  03:35      1.44    0.92    1.00
  WS02006249WS02006248 CONDUIT    424.30     0  03:35      1.36    2.32    1.00
  WS02006251WS02006249 CONDUIT    459.02     0  00:00      1.99    1.32    1.00
  WS02006252WS02006251 CONDUIT    412.71     0  01:42     15.77    1.51    1.00
  WS02006256WS02006235 CONDUIT    288.91     0  00:00      4.23    3.06    1.00
  WSF200WS02003060     CONDUIT    539.49     0  02:57      2.06    0.12    0.28
  YS02001580YS02001583 CONDUIT    136.80     0  01:53      0.67    0.53    1.00
  YS02001583YS02001586 CONDUIT    157.45     0  01:53      0.68    0.24    1.00
  YS02001586YS02001590 CONDUIT    318.01     0  02:20      1.25    0.56    1.00
  YS02001590YS02001593 CONDUIT    318.05     0  02:16      1.12    2.00    1.00
  YS02001593YS02001596 CONDUIT    318.08     0  02:08      1.75    0.50    1.00
  YS02001596YS02001600 CONDUIT    318.03     0  02:08      1.24    0.62    1.00
  YS02001600YS02001601 CONDUIT    318.07     0  02:20      1.12    0.55    1.00
  YS02001601YS02001602 CONDUIT    519.07     0  01:52      1.84    1.87    1.00
  YS02001602YS02001605 CONDUIT    519.23     0  01:52      1.84   10.99    1.00
  YS02001605YS02001607 CONDUIT    519.35     0  01:52      1.84    2.85    1.00
  YS02001607YS02001610 CONDUIT    522.64     0  01:52      0.67    0.50    1.00
  YS02001610YS02001613 CONDUIT    527.53     0  01:52      0.67    0.61    1.00
  YS02001613YS02001616 CONDUIT    528.60     0  01:52      0.68    0.45    1.00
  YS02001616YS02001619 CONDUIT    493.52     0  01:52      0.67    0.86    1.00
  YS02001619YS02001622 CONDUIT    968.68     0  02:02      1.23    1.43    1.00
  YS02001622YS02001625 CONDUIT    968.95     0  02:02      1.23    0.52    1.00
  YS02001625YS02001629 CONDUIT    927.36     0  01:55      1.19    0.44    1.00
  YS02001629YS02163301 CONDUIT    927.33     0  01:55      1.18    1.14    1.00
  YS02001633YS02163601 CONDUIT   1394.10     0  01:56      1.78    1.46    1.00
  YS02001641YS02001644 CONDUIT   1391.72     0  01:56      1.77    4.50    1.00
  YS02001644YS02001647 CONDUIT   1814.65     0  01:56      2.31    1.07    1.00
  YS02001647YS02001649 CONDUIT   1836.34     0  01:56      2.35    0.97    1.00
  YS02001649YS02001757 CONDUIT   2069.44     0  01:56      2.64    1.26    1.00
  YS02001652YS02001649 CONDUIT    960.46     0  02:02      1.22    0.48    1.00
  YS02001655YS02001652 CONDUIT    960.31     0  02:02      1.33    0.47    1.00
  YS02001658YS02001655 CONDUIT    960.58     0  02:02      1.91    0.41    1.00
  YS02001661YS02001658 CONDUIT    960.86     0  02:02      2.34    0.38    1.00
  YS02001664YS02001661 CONDUIT    957.90     0  02:02      2.36    0.30    0.81
  YS02001745YS02001748 CONDUIT    613.13     0  02:01      2.22    0.24    0.92
  YS02001748YS02001751 CONDUIT    613.56     0  02:01      1.75    0.31    1.00
  YS02001751YS02001754 CONDUIT    614.56     0  02:01      1.44    0.30    1.00
  YS02001754YS02001757 CONDUIT    614.68     0  02:01      0.78    0.25    1.00
  YS02001757CaochengTiaoxuchi CONDUIT   3533.38     0  02:00      4.51    1.53    1.00
  YS02001759YS02001757 CONDUIT   1448.76     0  02:00      1.84    1.03    1.00
  YS02001762YS02001759 CONDUIT    791.25     0  01:58      1.01    0.91    1.00
  YS02001765YS02001762 CONDUIT    793.55     0  01:58      1.01    0.74    1.00
  YS02001767YS02001765 CONDUIT    795.09     0  01:58      1.01    1.00    1.00
  YS02001770YS02001767 CONDUIT    794.62     0  01:58      1.01    3.15    1.00
  YS02001774YS02001770 CONDUIT    604.42     0  02:02      0.77    0.39    1.00
  YS02001779YS02001774 CONDUIT    604.80     0  02:02      0.77    0.30    1.00
  YS02001783YS02001784 CONDUIT   1168.40     0  02:00      2.32    1.61    1.00
  YS02001784YS02001785 CONDUIT   1169.26     0  02:00      2.33    2.72    1.00
  YS02001786YS02001788 CONDUIT   1170.25     0  02:00      2.49    2.25    0.89
  YS02001788YS02001790 CONDUIT   1181.83     0  01:59      2.73    0.87    0.84
  YS02001790YS02001791 CONDUIT   1289.99     0  02:06      3.43    1.40    0.70
  YS02001791YS02001793 CONDUIT   1240.18     0  02:03      6.72    0.53    0.45
  YS02001793JiankangQianchi CONDUIT   1282.03     0  02:00      2.53    0.10    0.65
  YS02001882YS02001884 CONDUIT     67.77     0  01:54      0.13    0.08    1.00
  YS02001884YS02001887 CONDUIT     84.30     0  01:54      0.11    0.11    1.00
  YS02001887YS02001890 CONDUIT    901.76     0  02:01      1.15    1.54    1.00
  YS02001890YS02001895 CONDUIT    518.72     0  02:06      0.66    0.24    1.00
  YS02001895YS02001898 CONDUIT    518.65     0  02:06      0.66    0.90    1.00
  YS02001898YS02001901 CONDUIT    517.24     0  02:04      0.66    0.33    1.00
  YS02001901YS02001904 CONDUIT    517.47     0  02:06      0.66    0.80    1.00
  YS02001904YS02001907 CONDUIT    518.66     0  02:06      0.66    0.18    1.00
  YS02001907YS02006553 CONDUIT    798.99     0  02:20      0.89    0.94    1.00
  YS02001910YS02001907 CONDUIT   1543.87     0  02:02      1.97    0.87    1.00
  YS02001915YS02001910 CONDUIT   1544.01     0  02:02      1.97    0.77    1.00
  YS02001918YS02001915 CONDUIT    517.20     0  02:02      0.66    0.29    1.00
  YS02001920YS02001918 CONDUIT    516.83     0  02:02      0.66    0.50    1.00
  YS02001923YS02001920 CONDUIT    514.03     0  02:02      0.69    0.23    1.00
  YS02001926YS02001923 CONDUIT    512.36     0  02:02      0.95    0.73    1.00
  YS02001929YS02001926 CONDUIT    511.29     0  02:02      1.12    0.24    1.00
  YS02006553YS02006556 CONDUIT    798.73     0  02:20      1.02    0.68    1.00
  YS02006556YS02006558 CONDUIT    799.71     0  02:20      1.02    0.63    1.00
  YS02006558YS02006561 CONDUIT   1178.51     0  01:56      4.17    2.60    1.00
  YS02006561YS02001783 CONDUIT   1167.67     0  02:00      2.32    0.60    1.00
  YS02163301YS02001633 CONDUIT    926.94     0  01:55      1.18    0.87    1.00
  YS02163601YS02164001 CONDUIT   1393.47     0  01:56      1.77    1.23    1.00
  YS02164001YS02001641 CONDUIT   1392.31     0  01:56      1.77    1.90    1.00
  CC-R1                PUMP       683.00     0  00:00              1.00
  CC-R2                PUMP       683.00     0  00:00              1.00
  CC-S1                PUMP       200.00     0  00:00              1.00
  CC-S2                PUMP       200.00     0  00:00              1.00
  JK-R1                PUMP      1000.00     0  00:00              1.00
  JK-R2                PUMP      1000.00     0  00:00              1.00
  JK-S                 PUMP       300.00     0  00:00              1.00
  
  
  ***************************
  Flow Classification Summary
  ***************************
  
  -------------------------------------------------------------------------------------
                      Adjusted    ---------- Fraction of Time in Flow Class ---------- 
                       /Actual         Up    Down  Sub   Sup   Up    Down  Norm  Inlet 
  Conduit               Length    Dry  Dry   Dry   Crit  Crit  Crit  Crit  Ltd   Ctrl  
  -------------------------------------------------------------------------------------
  1                       1.00   0.00  0.00  0.00  0.00  1.00  0.00  0.00  0.43  0.00
  WS02003060WS02003069    1.00   0.00  0.00  0.00  0.98  0.02  0.00  0.00  0.64  0.00
  WS02003066WSF200        1.00   0.07  0.00  0.00  0.00  0.93  0.00  0.00  0.80  0.00
  WS02003067WS02003066    1.00   0.06  0.01  0.00  0.93  0.00  0.00  0.00  0.00  0.00
  WS02003069WS02003072    1.00   0.00  0.00  0.00  0.99  0.01  0.00  0.00  0.71  0.00
  WS02003072WS02003073    1.00   0.00  0.00  0.00  0.00  0.00  0.00  1.00  0.00  0.00
  WS02004401WS02004402    1.00   0.02  0.00  0.00  0.98  0.00  0.00  0.00  0.00  0.00
  WS02004402WS02004403    1.00   0.02  0.00  0.00  0.97  0.00  0.00  0.00  0.00  0.00
  WS02004403WS02004404    1.00   0.00  0.03  0.00  0.97  0.00  0.00  0.00  0.00  0.00
  WS02004404WS02004405    1.00   0.00  0.00  0.00  1.00  0.00  0.00  0.00  0.01  0.00
  WS02004405WS02004406    1.00   0.00  0.00  0.00  1.00  0.00  0.00  0.00  0.00  0.00
  WS02004406WS02004407    1.00   0.00  0.04  0.00  0.96  0.00  0.00  0.00  0.00  0.00
  WS02004407WS02004409    1.00   0.04  0.00  0.00  0.95  0.01  0.00  0.00  0.95  0.00
  WS02004409WS02004410    1.00   0.04  0.00  0.00  0.96  0.00  0.00  0.00  0.00  0.00
  WS02004410WS02004411    1.00   0.04  0.00  0.00  0.96  0.00  0.00  0.00  0.00  0.00
  WS02004411WS02004412    1.00   0.04  0.00  0.00  0.96  0.00  0.00  0.00  0.00  0.00
  WS02004412WS02004413    1.00   0.04  0.00  0.00  0.95  0.00  0.00  0.00  0.00  0.00
  WS02004413WS02003067    1.00   0.04  0.01  0.00  0.00  0.00  0.94  0.00  0.00  0.00
  WS02006109WS02006110    1.00   0.00  0.01  0.00  0.98  0.00  0.01  0.00  0.00  0.00
  WS02006110WS02006113    1.00   0.01  0.01  0.00  0.98  0.00  0.00  0.00  0.00  0.00
  WS02006111WS02006112    1.00   0.02  0.00  0.00  0.98  0.00  0.00  0.00  0.98  0.00
  WS02006112WS02006115    1.00   0.02  0.00  0.00  0.97  0.00  0.00  0.00  0.00  0.00
  WS02006113WS02006111    1.00   0.02  0.00  0.00  0.00  0.98  0.00  0.00  0.17  0.00
  WS02006115WS02006116    1.00   0.02  0.00  0.00  0.97  0.00  0.00  0.01  0.00  0.00
  WS02006116WS02004401    1.00   0.02  0.00  0.00  0.98  0.00  0.00  0.00  0.00  0.00
  WS02006228WS02006109    1.00   0.00  0.00  0.00  1.00  0.00  0.00  0.00  0.01  0.00
  WS02006229WS02006228    1.00   0.00  0.00  0.00  0.99  0.00  0.00  0.01  0.00  0.00
  WS02006230WS02006229    1.00   0.00  0.00  0.00  0.99  0.00  0.00  0.01  0.00  0.00
  WS02006231WS02006230    1.00   0.00  0.00  0.00  0.30  0.00  0.69  0.00  0.00  0.00
  WS02006232WS02006231    1.00   0.00  0.00  0.00  0.99  0.00  0.01  0.00  0.00  0.00
  WS02006234WS02006232    1.00   0.00  0.00  0.00  1.00  0.00  0.00  0.00  0.13  0.00
  WS02006235WS02006234    1.00   0.00  0.00  0.00  0.81  0.00  0.19  0.00  0.00  0.00
  WS02006238WS02006235    1.00   0.00  0.00  0.00  1.00  0.00  0.00  0.00  0.00  0.00
  WS02006239WS02006238    1.00   0.00  0.00  0.00  1.00  0.00  0.00  0.00  0.24  0.00
  WS02006240WS02006239    1.00   0.00  0.00  0.00  0.67  0.00  0.00  0.32  0.01  0.00
  WS02006242WS02006240    1.00   0.00  0.00  0.00  0.99  0.00  0.01  0.00  0.00  0.00
  WS02006243WS02006242    1.00   0.00  0.00  0.00  0.99  0.00  0.00  0.01  0.39  0.00
  WS02006245WS02006243    1.00   0.00  0.00  0.00  0.79  0.00  0.00  0.21  0.00  0.00
  WS02006247WS02006245    1.00   0.00  0.00  0.00  0.98  0.00  0.00  0.01  0.00  0.00
  WS02006248WS02006247    1.00   0.00  0.00  0.00  0.99  0.00  0.00  0.01  0.23  0.00
  WS02006249WS02006248    1.00   0.00  0.00  0.00  0.61  0.00  0.39  0.00  0.00  0.00
  WS02006251WS02006249    1.00   0.00  0.00  0.00  0.99  0.00  0.00  0.00  0.40  0.00
  WS02006252WS02006251    1.00   0.00  0.20  0.00  0.13  0.00  0.67  0.00  0.00  0.00
  WS02006256WS02006235    1.00   0.00  0.00  0.00  1.00  0.00  0.00  0.00  0.00  0.00
  WSF200WS02003060        1.00   0.00  0.07  0.00  0.28  0.65  0.00  0.00  0.41  0.00
  YS02001580YS02001583    1.00   0.23  0.57  0.00  0.20  0.00  0.00  0.00  0.66  0.00
  YS02001583YS02001586    1.00   0.42  0.33  0.00  0.25  0.00  0.00  0.00  0.66  0.00
  YS02001586YS02001590    1.00   0.13  0.00  0.00  0.43  0.04  0.00  0.40  0.36  0.00
  YS02001590YS02001593    1.00   0.13  0.01  0.00  0.12  0.00  0.74  0.00  0.00  0.00
  YS02001593YS02001596    1.00   0.13  0.00  0.00  0.14  0.01  0.00  0.71  0.02  0.00
  YS02001596YS02001600    1.00   0.14  0.00  0.00  0.20  0.01  0.00  0.65  0.04  0.00
  YS02001600YS02001601    1.00   0.13  0.01  0.00  0.86  0.00  0.00  0.00  0.60  0.00
  YS02001601YS02001602    1.00   0.13  0.01  0.00  0.87  0.00  0.00  0.00  0.00  0.00
  YS02001602YS02001605    1.00   0.13  0.00  0.00  0.86  0.00  0.00  0.00  0.00  0.00
  YS02001605YS02001607    1.00   0.14  0.00  0.00  0.86  0.00  0.00  0.00  0.00  0.00
  YS02001607YS02001610    1.00   0.13  0.01  0.00  0.86  0.00  0.00  0.00  0.01  0.00
  YS02001610YS02001613    1.00   0.13  0.00  0.00  0.87  0.00  0.00  0.00  0.00  0.00
  YS02001613YS02001616    1.00   0.13  0.00  0.00  0.87  0.00  0.00  0.00  0.00  0.00
  YS02001616YS02001619    1.00   0.13  0.00  0.00  0.87  0.00  0.00  0.00  0.00  0.00
  YS02001619YS02001622    1.00   0.13  0.00  0.00  0.87  0.00  0.00  0.00  0.29  0.00
  YS02001622YS02001625    1.00   0.13  0.00  0.00  0.87  0.00  0.00  0.00  0.04  0.00
  YS02001625YS02001629    1.00   0.13  0.05  0.00  0.17  0.00  0.66  0.00  0.00  0.00
  YS02001629YS02163301    1.00   0.15  0.01  0.00  0.84  0.00  0.00  0.00  0.00  0.00
  YS02001633YS02163601    1.00   0.00  0.01  0.00  0.99  0.00  0.00  0.00  0.15  0.00
  YS02001641YS02001644    1.00   0.00  0.01  0.00  0.99  0.00  0.00  0.00  0.00  0.00
  YS02001644YS02001647    1.00   0.00  0.17  0.00  0.83  0.00  0.00  0.00  0.00  0.00
  YS02001647YS02001649    1.00   0.00  0.17  0.00  0.55  0.29  0.00  0.00  0.56  0.00
  YS02001649YS02001757    1.00   0.00  0.00  0.00  0.85  0.15  0.00  0.00  0.41  0.00
  YS02001652YS02001649    1.00   0.00  0.00  0.00  0.97  0.03  0.00  0.00  0.73  0.00
  YS02001655YS02001652    1.00   0.00  0.00  0.00  0.19  0.01  0.00  0.79  0.05  0.00
  YS02001658YS02001655    1.00   0.00  0.14  0.00  0.67  0.19  0.00  0.00  0.67  0.00
  YS02001661YS02001658    1.00   0.14  0.00  0.00  0.51  0.35  0.00  0.00  0.68  0.00
  YS02001664YS02001661    1.00   0.13  0.00  0.00  0.77  0.11  0.00  0.00  0.85  0.00
  YS02001745YS02001748    1.00   0.00  0.00  0.00  0.10  0.01  0.00  0.89  0.05  0.00
  YS02001748YS02001751    1.00   0.00  0.00  0.00  0.83  0.17  0.00  0.00  0.76  0.00
  YS02001751YS02001754    1.00   0.00  0.00  0.00  0.16  0.01  0.00  0.83  0.02  0.00
  YS02001754YS02001757    1.00   0.00  0.00  0.00  1.00  0.00  0.00  0.00  0.81  0.00
  YS02001757CaochengTiaoxuchi    1.00   0.00  0.00  0.00  0.96  0.04  0.00  0.00  0.64  0.00
  YS02001759YS02001757    1.00   0.00  0.00  0.00  1.00  0.00  0.00  0.00  0.53  0.00
  YS02001762YS02001759    1.00   0.00  0.00  0.00  1.00  0.00  0.00  0.00  0.05  0.00
  YS02001765YS02001762    1.00   0.00  0.00  0.00  1.00  0.00  0.00  0.00  0.66  0.00
  YS02001767YS02001765    1.00   0.00  0.00  0.00  1.00  0.00  0.00  0.00  0.01  0.00
  YS02001770YS02001767    1.00   0.00  0.00  0.00  1.00  0.00  0.00  0.00  0.00  0.00
  YS02001774YS02001770    1.00   0.00  0.13  0.00  0.70  0.00  0.17  0.00  0.03  0.00
  YS02001779YS02001774    1.00   0.00  0.00  0.00  1.00  0.00  0.00  0.00  0.77  0.00
  YS02001783YS02001784    1.00   0.00  0.18  0.00  0.82  0.00  0.00  0.00  0.55  0.00
  YS02001784YS02001785    1.00   0.00  0.00  0.00  1.00  0.00  0.00  0.00  0.16  0.00
  YS02001786YS02001788    1.00   0.00  0.00  0.00  0.79  0.21  0.00  0.00  0.00  0.00
  YS02001788YS02001790    1.00   0.00  0.00  0.00  0.21  0.79  0.00  0.00  0.80  0.00
  YS02001790YS02001791    1.00   0.00  0.00  0.00  0.01  0.99  0.00  0.00  0.16  0.00
  YS02001791YS02001793    1.00   0.00  0.00  0.00  0.00  1.00  0.00  0.00  0.01  0.00
  YS02001793JiankangQianchi    1.00   0.00  0.00  0.00  0.97  0.03  0.00  0.00  0.97  0.00
  YS02001882YS02001884    1.00   0.15  0.01  0.00  0.84  0.00  0.00  0.00  0.00  0.00
  YS02001884YS02001887    1.00   0.06  0.05  0.00  0.89  0.00  0.00  0.00  0.00  0.00
  YS02001887YS02001890    1.00   0.00  0.00  0.00  0.97  0.00  0.03  0.00  0.00  0.00
  YS02001890YS02001895    1.00   0.00  0.16  0.00  0.84  0.00  0.00  0.00  0.00  0.00
  YS02001895YS02001898    1.00   0.16  0.00  0.00  0.82  0.00  0.02  0.00  0.00  0.00
  YS02001898YS02001901    1.00   0.16  0.00  0.00  0.83  0.00  0.00  0.00  0.01  0.00
  YS02001901YS02001904    1.00   0.16  0.00  0.00  0.84  0.00  0.00  0.00  0.00  0.00
  YS02001904YS02001907    1.00   0.00  0.16  0.00  0.84  0.00  0.00  0.00  0.00  0.00
  YS02001907YS02006553    1.00   0.00  0.02  0.00  0.98  0.00  0.00  0.00  0.00  0.00
  YS02001910YS02001907    1.00   0.00  0.00  0.00  0.97  0.00  0.00  0.03  0.12  0.00
  YS02001915YS02001910    1.00   0.00  0.00  0.00  0.97  0.03  0.00  0.00  0.15  0.00
  YS02001918YS02001915    1.00   0.00  0.01  0.00  0.98  0.02  0.00  0.00  0.74  0.00
  YS02001920YS02001918    1.00   0.00  0.01  0.00  0.99  0.00  0.00  0.00  0.00  0.00
  YS02001923YS02001920    1.00   0.00  0.00  0.00  1.00  0.00  0.00  0.00  0.92  0.00
  YS02001926YS02001923    1.00   0.00  0.07  0.00  0.06  0.00  0.86  0.00  0.00  0.00
  YS02001929YS02001926    1.00   0.00  0.13  0.00  0.87  0.00  0.00  0.00  0.82  0.00
  YS02006553YS02006556    1.00   0.01  0.00  0.00  0.99  0.00  0.00  0.00  0.03  0.00
  YS02006556YS02006558    1.00   0.00  0.00  0.00  1.00  0.00  0.00  0.00  0.00  0.00
  YS02006558YS02006561    1.00   0.18  0.00  0.00  0.06  0.76  0.00  0.00  0.18  0.00
  YS02006561YS02001783    1.00   0.18  0.00  0.00  0.09  0.73  0.00  0.00  0.68  0.00
  YS02163301YS02001633    1.00   0.00  0.15  0.00  0.85  0.00  0.00  0.00  0.00  0.00
  YS02163601YS02164001    1.00   0.00  0.08  0.00  0.92  0.00  0.00  0.00  0.00  0.00
  YS02164001YS02001641    1.00   0.01  0.07  0.00  0.92  0.00  0.00  0.00  0.05  0.00
  
  
  *************************
  Conduit Surcharge Summary
  *************************
  
  ----------------------------------------------------------------------------
                                                           Hours        Hours 
                         --------- Hours Full --------   Above Full   Capacity
  Conduit                Both Ends  Upstream  Dnstream   Normal Flow   Limited
  ----------------------------------------------------------------------------
  WS02003072WS02003073        0.01      0.01      0.01      1.22         0.01
  WS02004403WS02004404        0.01      0.01      0.04      0.01         0.01
  WS02004404WS02004405        0.01      0.04      0.01      4.63         0.01
  WS02004405WS02004406        0.01      0.01      0.01      0.77         0.01
  WS02006109WS02006110        0.88      0.88      2.16      0.97         0.01
  WS02006110WS02006113        0.01      0.01      2.15      0.01         0.01
  WS02006111WS02006112        0.01      0.01      2.96      0.01         0.01
  WS02006112WS02006115        0.01      0.01      0.95      0.01         0.01
  WS02006228WS02006109        2.13      2.17      2.13      3.19         2.13
  WS02006229WS02006228        2.12      2.13      2.12      2.61         2.11
  WS02006230WS02006229        2.30      2.54      2.30      4.97         2.29
  WS02006231WS02006230        0.89      0.89      1.02      4.81         0.01
  WS02006232WS02006231        0.98      0.98      2.18      1.06         0.01
  WS02006234WS02006232        2.09      2.10      2.18      1.04         1.05
  WS02006235WS02006234        1.38      1.38      2.11      4.71         0.01
  WS02006238WS02006235        2.12      2.13      2.18      0.01         0.01
  WS02006239WS02006238        2.14      2.16      2.15      2.33         1.88
  WS02006240WS02006239        2.11      2.13      2.11      2.32         1.77
  WS02006242WS02006240        2.12      2.12      2.25      2.62         0.01
  WS02006243WS02006242        2.05      2.05      2.16      0.01         0.03
  WS02006245WS02006243        2.04      2.04      2.05      1.44         1.26
  WS02006247WS02006245        2.04      2.04      2.04      4.49         2.03
  WS02006248WS02006247        2.03      2.03      2.04      0.01         0.04
  WS02006249WS02006248        2.02      2.02      2.02      4.47         0.01
  WS02006251WS02006249        2.02      2.02      2.02      2.44         1.95
  WS02006252WS02006251        2.50      2.50      2.51      2.51         0.01
  WS02006256WS02006235        4.74      4.77      6.00      1.40         0.01
  YS02001580YS02001583        0.66      0.66      0.71      0.01         0.01
  YS02001583YS02001586        0.67      0.67      0.79      0.01         0.01
  YS02001586YS02001590        0.80      0.80      0.87      0.01         0.01
  YS02001590YS02001593        0.87      0.87      0.89      0.92         0.01
  YS02001593YS02001596        0.88      0.88      0.99      0.01         0.01
  YS02001596YS02001600        1.04      1.04      1.15      0.01         0.01
  YS02001600YS02001601        1.23      1.23      1.49      0.01         0.01
  YS02001601YS02001602        1.39      1.39      1.53      1.16         0.01
  YS02001602YS02001605        1.35      1.35      1.39      2.30         0.01
  YS02001605YS02001607        1.31      1.35      1.31      1.46         1.31
  YS02001607YS02001610        0.86      0.86      0.88      0.01         0.01
  YS02001610YS02001613        0.85      0.85      0.88      0.01         0.01
  YS02001613YS02001616        0.80      0.80      0.85      0.01         0.01
  YS02001616YS02001619        0.79      0.79      0.80      0.01         0.03
  YS02001619YS02001622        0.79      0.79      0.79      0.88         0.77
  YS02001622YS02001625        0.79      0.79      0.98      0.01         0.01
  YS02001625YS02001629        0.74      0.74      0.98      0.01         0.01
  YS02001629YS02163301        0.98      0.98      0.99      0.15         0.18
  YS02001633YS02163601        1.00      1.00      1.04      0.37         0.36
  YS02001641YS02001644        0.92      0.94      0.92      1.56         0.90
  YS02001644YS02001647        0.70      0.70      0.92      0.04         0.01
  YS02001647YS02001649        0.70      0.70      0.82      0.01         0.01
  YS02001649YS02001757        0.81      0.82      0.89      0.09         0.04
  YS02001652YS02001649        0.64      0.64      0.82      0.01         0.01
  YS02001655YS02001652        0.44      0.44      0.61      0.01         0.01
  YS02001658YS02001655        0.23      0.23      0.44      0.01         0.01
  YS02001661YS02001658        0.05      0.05      0.24      0.01         0.01
  YS02001664YS02001661        0.01      0.01      0.11      0.01         0.01
  YS02001745YS02001748        0.01      0.01      0.18      0.01         0.01
  YS02001748YS02001751        0.21      0.21      0.32      0.01         0.01
  YS02001751YS02001754        0.32      0.32      0.51      0.01         0.01
  YS02001754YS02001757        0.55      0.55      0.89      0.01         0.01
  YS02001757CaochengTiaoxuchi        0.82      0.89      1.89      0.40         0.29
  YS02001759YS02001757        0.79      0.79      0.89      0.03         0.05
  YS02001762YS02001759        0.75      0.75      0.79      0.01         0.02
  YS02001765YS02001762        0.71      0.71      0.75      0.01         0.01
  YS02001767YS02001765        0.67      0.67      0.71      0.01         0.02
  YS02001770YS02001767        0.67      0.67      0.67      0.57         0.46
  YS02001774YS02001770        0.64      0.64      0.74      0.01         0.01
  YS02001779YS02001774        0.50      0.50      0.74      0.01         0.01
  YS02001783YS02001784        0.55      0.57      0.55      0.72         0.55
  YS02001784YS02001785        0.44      0.55      0.44      0.98         0.44
  YS02001786YS02001788        0.01      0.44      0.01      0.84         0.01
  YS02001790YS02001791        0.01      0.01      0.01      0.53         0.01
  YS02001793JiankangQianchi        0.01      0.01      7.53      0.01         0.01
  YS02001882YS02001884        0.51      0.51      0.53      0.01         0.01
  YS02001884YS02001887        0.55      0.55      0.56      0.01         0.01
  YS02001887YS02001890        0.57      0.57      0.59      0.14         0.01
  YS02001890YS02001895        0.50      0.50      0.60      0.01         0.01
  YS02001895YS02001898        0.50      0.50      0.50      0.01         0.01
  YS02001898YS02001901        0.51      0.51      0.55      0.01         0.01
  YS02001901YS02001904        0.54      0.54      0.55      0.01         0.01
  YS02001904YS02001907        0.54      0.54      0.82      0.01         0.01
  YS02001907YS02006553        0.99      0.99      1.06      0.01         0.01
  YS02001910YS02001907        0.60      0.60      0.80      0.01         0.01
  YS02001915YS02001910        0.51      0.51      0.60      0.01         0.01
  YS02001918YS02001915        0.43      0.43      0.51      0.01         0.01
  YS02001920YS02001918        0.43      0.43      0.44      0.01         0.01
  YS02001923YS02001920        0.38      0.38      0.44      0.01         0.01
  YS02001926YS02001923        0.13      0.13      0.16      0.01         0.01
  YS02001929YS02001926        0.01      0.01      0.16      0.01         0.01
  YS02006553YS02006556        0.70      0.70      0.81      0.01         0.01
  YS02006556YS02006558        0.76      0.76      0.83      0.01         0.01
  YS02006558YS02006561        0.46      0.68      0.46      0.93         0.46
  YS02006561YS02001783        0.39      0.39      0.57      0.01         0.01
  YS02163301YS02001633        0.99      0.99      1.02      0.01         0.01
  YS02163601YS02164001        0.95      0.95      1.04      0.08         0.01
  YS02164001YS02001641        0.94      0.95      0.94      0.75         0.69
  
  
  ***************
  Pumping Summary
  ***************
  
  ---------------------------------------------------------------------------------------------------------
                                                  Min       Avg       Max     Total     Power    % Time Off
                        Percent   Number of      Flow      Flow      Flow    Volume     Usage    Pump Curve
  Pump                 Utilized   Start-Ups       LPS       LPS       LPS  10^6 ltr     Kw-hr    Low   High
  ---------------------------------------------------------------------------------------------------------
  CC-R1                   16.13           6      0.00    683.00    683.00     3.172     59.88    0.0    7.8
  CC-R2                   18.25           5      0.00    683.00    683.00     3.590     66.29    0.0   29.5
  CC-S1                   51.18          10      0.00    200.00    200.00     2.948     17.93    0.0    0.0
  CC-S2                   36.87          12      0.00    200.00    200.00     2.124     12.73    0.0    0.0
  JK-R1                    5.83          11      0.00   1000.00   1000.00     1.679     16.99    0.0    0.0
  JK-R2                    3.78          12      0.00   1000.00   1000.00     1.090      9.62    0.0    0.0
  JK-S                    17.39          15      0.00    300.00    300.00     1.502     24.13    0.0    0.0
  

  Analysis begun on:  Wed Jan 15 10:23:57 2025
  Analysis ended on:  Wed Jan 15 10:23:59 2025
  Total elapsed time: 00:00:02