
  EPA STORM WATER MANAGEMENT MODEL - VERSION 5.2 (Build 5.2.4)
  PYSWMM TOOLKIT API - VERSION v1.0 (2023-11-27)
  ------------------------------------------------------------

  WARNING 04: minimum elevation drop used for Conduit WS02004404WS02004405
  WARNING 03: negative offset ignored for Link YS02001904YS02001907
  
  ****************
  Analysis Options
  ****************
  Flow Units ............... LPS
  Process Models:
    Rainfall/Runoff ........ YES
    RDII ................... NO
    Snowmelt ............... NO
    Groundwater ............ NO
    Flow Routing ........... YES
    Ponding Allowed ........ NO
    Water Quality .......... NO
  Infiltration Method ...... HORTON
  Flow Routing Method ...... DYNWAVE
  Surcharge Method ......... EXTRAN
  Starting Date ............ 08/28/2015 08:00:00
  Ending Date .............. 08/28/2015 16:00:00
  Antecedent Dry Days ...... 8.0
  Report Time Step ......... 00:01:00
  Wet Time Step ............ 00:01:00
  Dry Time Step ............ 00:01:00
  Routing Time Step ........ 30.00 sec
  Variable Time Step ....... YES
  Maximum Trials ........... 8
  Number of Threads ........ 4
  Head Tolerance ........... 0.001500 m
  
  
  **************************        Volume         Depth
  Runoff Quantity Continuity     hectare-m            mm
  **************************     ---------       -------
  Total Precipitation ......         2.445        73.712
  Evaporation Loss .........         0.000         0.000
  Infiltration Loss ........         0.100         3.019
  Surface Runoff ...........         2.312        69.715
  Final Storage ............         0.033         0.995
  Continuity Error (%) .....        -0.022
  
  
  **************************        Volume        Volume
  Flow Routing Continuity        hectare-m      10^6 ltr
  **************************     ---------     ---------
  Dry Weather Inflow .......         0.025         0.251
  Wet Weather Inflow .......         2.312        23.124
  Groundwater Inflow .......         0.000         0.000
  RDII Inflow ..............         0.000         0.000
  External Inflow ..........         0.083         0.834
  External Outflow .........         1.681        16.807
  Flooding Loss ............         0.803         8.034
  Evaporation Loss .........         0.000         0.000
  Exfiltration Loss ........         0.000         0.000
  Initial Stored Volume ....         0.243         2.431
  Final Stored Volume ......         0.187         1.871
  Continuity Error (%) .....        -0.271
  
  
  *************************
  Highest Continuity Errors
  *************************
  Node YS02001583 (-7.19%)
  Node YS02001884 (5.08%)
  
  
  ***************************
  Time-Step Critical Elements
  ***************************
  Link WS02006252WS02006251 (48.18%)
  Link WS02004404WS02004405 (13.46%)
  Link WS02006238WS02006235 (11.95%)
  Link WS02006235WS02006234 (7.37%)
  Link YS02001791YS02001793 (6.49%)
  
  
  ********************************
  Highest Flow Instability Indexes
  ********************************
  Link WS02006113WS02006111 (55)
  Link WS02006111WS02006112 (25)
  Link WS02006238WS02006235 (14)
  Link WS02006256WS02006235 (12)
  Link WS02006252WS02006251 (12)
  
  
  *********************************
  Most Frequent Nonconverging Nodes
  *********************************
  Node CC-1 (8.32%)
  Node CC-2 (8.32%)
  Node JK-1 (8.32%)
  Node JK-2 (8.32%)
  Node WSC (8.32%)
  
  
  *************************
  Routing Time Step Summary
  *************************
  Minimum Time Step           :     0.00 sec
  Average Time Step           :     1.84 sec
  Maximum Time Step           :     7.04 sec
  % of Time in Steady State   :     0.00
  Average Iterations per Step :     2.80
  % of Steps Not Converging   :     8.32
  Time Step Frequencies       :
     30.000 - 13.228 sec      :     0.00 %
     13.228 -  5.833 sec      :     8.61 %
      5.833 -  2.572 sec      :    13.07 %
      2.572 -  1.134 sec      :    24.20 %
      1.134 -  0.500 sec      :    54.12 %
  
  
  ***************************
  Subcatchment Runoff Summary
  ***************************
  
  ------------------------------------------------------------------------------------------------------------------------------
                            Total      Total      Total      Total     Imperv       Perv      Total       Total     Peak  Runoff
                           Precip      Runon       Evap      Infil     Runoff     Runoff     Runoff      Runoff   Runoff   Coeff
  Subcatchment                 mm         mm         mm         mm         mm         mm         mm    10^6 ltr      LPS
  ------------------------------------------------------------------------------------------------------------------------------
  sub60                     73.71       0.00       0.00       1.83      63.67       7.02      70.69        0.93   605.91   0.959
  sub61                     73.71       0.00       0.00       2.64      60.05       9.89      69.94        1.28   839.52   0.949
  sub62                     73.71       0.00       0.00       1.22      66.53       4.68      71.21        1.95  1179.56   0.966
  sub63                     73.71       0.00       0.00       4.86      51.37      16.52      67.89        1.54   931.22   0.921
  sub64                     73.71       0.00       0.00       2.46      61.45       8.60      70.05        1.68   960.37   0.950
  sub65                     73.71       0.00       0.00       2.13      62.88       7.46      70.34        1.94  1071.16   0.954
  sub66                     73.71       0.00       0.00       5.99      51.26      15.39      66.65        3.11  1398.03   0.904
  sub67                     73.71       0.00       0.00       1.17      66.57       4.73      71.30        1.33   910.25   0.967
  sub68                     73.71       0.00       0.00       2.19      62.21       8.13      70.34        1.94  1205.42   0.954
  sub69                     73.71       0.00       0.00       1.95      62.55       9.11      71.66        2.65  1426.85   0.972
  sub70                     73.71       0.00       0.00       6.46      48.49      18.60      67.09        1.94   786.58   0.910
  sub71                     73.71       0.00       0.00       1.25      66.49       4.65      71.14        1.86  1039.36   0.965
  sub72                     73.71       0.00       0.00       1.11      67.15       4.05      71.21        0.98   502.88   0.966
  
  
  ******************
  Node Depth Summary
  ******************
  
  ---------------------------------------------------------------------------------
                                 Average  Maximum  Maximum  Time of Max    Reported
                                   Depth    Depth      HGL   Occurrence   Max Depth
  Node                 Type       Meters   Meters   Meters  days hr:min      Meters
  ---------------------------------------------------------------------------------
  WS02003060           JUNCTION     0.26     0.38     5.32     0  02:48        0.38
  WS02003066           JUNCTION     0.21     0.30     5.85     0  02:48        0.30
  WS02003067           JUNCTION     0.54     0.70     6.02     0  02:47        0.70
  WS02003069           JUNCTION     0.29     0.43     5.01     0  02:49        0.43
  WS02003072           JUNCTION     0.36     0.50     4.87     0  03:05        0.50
  WS02003073           JUNCTION     0.20     0.30     4.36     0  03:05        0.30
  WS02004401           JUNCTION     0.63     0.85     6.85     0  02:41        0.85
  WS02004402           JUNCTION     0.66     0.88     6.84     0  02:42        0.88
  WS02004403           JUNCTION     0.68     0.89     6.82     0  02:42        0.89
  WS02004404           JUNCTION     0.76     0.96     6.81     0  02:42        0.96
  WS02004405           JUNCTION     0.75     0.96     6.81     0  02:42        0.96
  WS02004406           JUNCTION     0.76     0.96     6.79     0  02:42        0.96
  WS02004407           JUNCTION     0.20     0.30     6.61     0  02:42        0.30
  WS02004409           JUNCTION     0.44     0.67     6.44     0  02:46        0.67
  WS02004410           JUNCTION     0.46     0.68     6.40     0  02:46        0.68
  WS02004411           JUNCTION     0.48     0.69     6.37     0  02:47        0.69
  WS02004412           JUNCTION     0.50     0.70     6.34     0  02:47        0.70
  WS02004413           JUNCTION     0.66     0.86     6.33     0  02:47        0.86
  WS02006109           JUNCTION     0.69     1.14     7.76     0  02:31        1.02
  WS02006110           JUNCTION     0.69     1.18     7.76     0  02:31        1.02
  WS02006111           JUNCTION     0.19     0.29     6.99     0  03:01        0.29
  WS02006112           JUNCTION     0.79     1.06     6.95     0  02:21        1.05
  WS02006113           JUNCTION     0.30     0.46     7.35     0  03:07        0.46
  WS02006115           JUNCTION     0.51     0.75     6.89     0  02:41        0.75
  WS02006116           JUNCTION     0.60     0.83     6.87     0  02:41        0.83
  WS02006228           JUNCTION     0.68     1.16     7.81     0  02:30        1.03
  WS02006229           JUNCTION     0.66     1.20     7.89     0  02:30        1.06
  WS02006230           JUNCTION     0.66     1.37     8.12     0  02:30        1.14
  WS02006231           JUNCTION     0.45     1.09     8.21     0  02:30        0.89
  WS02006232           JUNCTION     0.59     1.25     8.29     0  02:30        1.10
  WS02006234           JUNCTION     0.52     1.24     8.40     0  02:30        1.18
  WS02006235           JUNCTION     0.56     1.35     8.52     0  02:30        1.28
  WS02006238           JUNCTION     0.59     1.39     8.54     0  02:30        1.31
  WS02006239           JUNCTION     0.56     1.36     8.57     0  02:30        1.27
  WS02006240           JUNCTION     0.53     1.31     8.61     0  02:30        1.23
  WS02006242           JUNCTION     0.60     1.37     8.63     0  02:30        1.30
  WS02006243           JUNCTION     0.51     1.23     8.65     0  02:30        1.19
  WS02006245           JUNCTION     0.50     1.18     8.66     0  02:10        1.16
  WS02006247           JUNCTION     0.53     1.17     8.67     0  02:30        1.16
  WS02006248           JUNCTION     0.48     1.10     8.69     0  02:30        1.09
  WS02006249           JUNCTION     0.52     1.09     8.69     0  01:49        1.09
  WS02006251           JUNCTION     0.51     1.38     9.05     0  01:49        1.13
  WS02006252           JUNCTION     0.38     1.50     9.74     0  00:00        0.69
  WS02006256           JUNCTION     1.00     2.35     9.28     0  00:00        2.35
  WSF200               JUNCTION     0.19     0.29     5.52     0  02:49        0.29
  YS02001580           JUNCTION     0.09     1.05     9.59     0  01:43        0.77
  YS02001583           JUNCTION     0.12     1.11     9.61     0  01:43        0.82
  YS02001586           JUNCTION     0.18     1.13     9.30     0  01:43        1.13
  YS02001590           JUNCTION     0.27     1.40     9.26     0  01:43        1.37
  YS02001593           JUNCTION     0.21     1.35     9.21     0  01:43        1.29
  YS02001596           JUNCTION     0.28     1.70     9.12     0  01:43        1.65
  YS02001600           JUNCTION     0.33     1.87     9.00     0  01:42        1.86
  YS02001601           JUNCTION     0.51     2.06     8.90     0  01:42        2.06
  YS02001602           JUNCTION     0.43     1.87     8.77     0  01:43        1.87
  YS02001605           JUNCTION     0.40     1.78     8.68     0  01:43        1.78
  YS02001607           JUNCTION     0.41     1.65     8.50     0  02:01        1.65
  YS02001610           JUNCTION     0.45     1.68     8.48     0  01:43        1.68
  YS02001613           JUNCTION     0.41     1.68     8.52     0  01:43        1.67
  YS02001616           JUNCTION     0.34     1.61     8.52     0  01:43        1.61
  YS02001619           JUNCTION     0.32     1.61     8.54     0  01:43        1.61
  YS02001622           JUNCTION     0.31     1.62     8.52     0  01:43        1.58
  YS02001625           JUNCTION     0.58     1.78     8.38     0  01:43        1.78
  YS02001629           JUNCTION     0.42     1.85     8.40     0  01:43        1.85
  YS02001633           JUNCTION     0.50     2.06     8.51     0  01:48        2.06
  YS02001641           JUNCTION     0.49     2.06     8.50     0  02:17        2.06
  YS02001644           JUNCTION     0.48     1.92     8.35     0  01:47        1.92
  YS02001647           JUNCTION     0.28     1.81     8.42     0  01:47        1.73
  YS02001649           JUNCTION     0.32     2.05     8.44     0  01:47        1.95
  YS02001652           JUNCTION     0.22     1.98     8.57     0  01:47        1.88
  YS02001655           JUNCTION     0.17     1.97     8.82     0  01:47        1.74
  YS02001658           JUNCTION     0.13     1.97     9.12     0  01:47        1.53
  YS02001661           JUNCTION     0.15     1.49     8.89     0  01:47        1.32
  YS02001664           JUNCTION     0.05     0.90     8.83     0  01:48        0.84
  YS02001745           JUNCTION     0.06     1.60     9.12     0  01:47        0.82
  YS02001748           JUNCTION     0.12     1.95     9.03     0  01:47        1.24
  YS02001751           JUNCTION     0.15     1.99     8.87     0  01:47        1.42
  YS02001754           JUNCTION     0.20     2.06     8.67     0  01:47        1.67
  YS02001757           JUNCTION     0.34     2.19     8.45     0  01:47        1.98
  YS02001759           JUNCTION     0.29     2.19     8.55     0  01:47        1.97
  YS02001762           JUNCTION     0.28     2.15     8.55     0  01:47        1.95
  YS02001765           JUNCTION     0.26     2.10     8.55     0  01:47        1.91
  YS02001767           JUNCTION     0.26     2.03     8.52     0  01:46        1.89
  YS02001770           JUNCTION     0.27     1.95     8.44     0  01:46        1.92
  YS02001774           JUNCTION     0.34     2.00     8.42     0  01:47        1.97
  YS02001779           JUNCTION     0.18     1.68     8.37     0  01:46        1.68
  YS02001783           JUNCTION     0.21     1.31     7.45     0  01:45        1.23
  YS02001784           JUNCTION     0.23     1.18     7.25     0  01:45        1.12
  YS02001786           JUNCTION     0.19     0.92     6.95     0  01:45        0.87
  YS02001788           JUNCTION     0.14     0.62     6.60     0  01:47        0.62
  YS02001790           JUNCTION     0.16     0.73     6.37     0  01:46        0.72
  YS02001791           JUNCTION     0.10     0.44     5.91     0  01:49        0.43
  YS02001793           JUNCTION     0.05     0.30     5.13     0  01:54        0.26
  YS02001882           JUNCTION     0.28     1.83     8.55     0  01:44        1.71
  YS02001884           JUNCTION     0.37     1.93     8.54     0  01:44        1.81
  YS02001887           JUNCTION     0.45     1.90     8.44     0  01:44        1.88
  YS02001890           JUNCTION     0.48     1.81     8.32     0  01:44        1.81
  YS02001895           JUNCTION     0.25     1.75     8.50     0  01:44        1.56
  YS02001898           JUNCTION     0.26     1.77     8.51     0  01:44        1.56
  YS02001901           JUNCTION     0.38     1.84     8.45     0  01:44        1.67
  YS02001904           JUNCTION     0.36     1.66     8.29     0  01:44        1.64
  YS02001907           JUNCTION     0.68     1.96     8.25     0  01:44        1.96
  YS02001910           JUNCTION     0.48     2.04     8.55     0  01:44        1.91
  YS02001915           JUNCTION     0.28     2.00     8.72     0  01:44        1.83
  YS02001918           JUNCTION     0.15     1.81     8.88     0  01:46        1.51
  YS02001920           JUNCTION     0.23     2.14     9.15     0  01:46        1.59
  YS02001923           JUNCTION     0.12     2.03     9.29     0  01:46        1.36
  YS02001926           JUNCTION     0.15     1.90     9.35     0  01:46        1.20
  YS02001929           JUNCTION     0.08     1.78     9.47     0  01:46        0.99
  YS02006553           JUNCTION     0.68     2.00     8.28     0  01:48        2.00
  YS02006556           JUNCTION     0.66     2.02     8.33     0  01:48        2.02
  YS02006558           JUNCTION     0.70     2.08     8.34     0  01:48        2.08
  YS02006561           JUNCTION     0.14     0.98     7.64     0  01:45        0.90
  YS02163301           JUNCTION     0.44     1.94     8.45     0  01:48        1.94
  YS02163601           JUNCTION     0.54     2.08     8.48     0  02:17        2.08
  YS02164001           JUNCTION     0.47     2.07     8.52     0  02:17        2.07
  CC-1                 OUTFALL      0.00     0.00     0.00     0  00:00        0.00
  CC-2                 OUTFALL      0.00     0.00     0.00     0  00:00        0.00
  JK-1                 OUTFALL      0.00     0.00     0.00     0  00:00        0.00
  JK-2                 OUTFALL      0.00     0.00     0.00     0  00:00        0.00
  WSC                  OUTFALL      0.20     0.30     0.97     0  03:06        0.30
  CC-storage           STORAGE      0.86     1.71     7.21     0  02:25        1.71
  JK-storage           STORAGE      2.88     4.23     5.03     0  01:53        4.18
  
  
  *******************
  Node Inflow Summary
  *******************
  
  -------------------------------------------------------------------------------------------------
                                  Maximum  Maximum                  Lateral       Total        Flow
                                  Lateral    Total  Time of Max      Inflow      Inflow     Balance
                                   Inflow   Inflow   Occurrence      Volume      Volume       Error
  Node                 Type           LPS      LPS  days hr:min    10^6 ltr    10^6 ltr     Percent
  -------------------------------------------------------------------------------------------------
  WS02003060           JUNCTION     16.53   553.11     0  02:48       0.476        6.51       0.031
  WS02003066           JUNCTION      0.00   536.41     0  02:48           0        6.03       0.021
  WS02003067           JUNCTION      0.00   536.36     0  02:47           0        6.04       0.067
  WS02003069           JUNCTION      0.32   553.27     0  02:49     0.00922        6.51       0.054
  WS02003072           JUNCTION      0.00   553.06     0  03:04           0        6.51       0.097
  WS02003073           JUNCTION      1.82   554.87     0  03:05      0.0524        6.56       0.078
  WS02004401           JUNCTION      0.00   538.56     0  02:41           0        6.13       0.161
  WS02004402           JUNCTION      0.00   538.17     0  02:41           0        6.12       0.165
  WS02004403           JUNCTION      0.00   537.94     0  02:42           0        6.11       0.161
  WS02004404           JUNCTION      0.16   537.64     0  02:42     0.00467        6.11       0.135
  WS02004405           JUNCTION      0.04   537.46     0  02:42      0.0011         6.1       0.201
  WS02004406           JUNCTION      0.00   537.83     0  02:42           0        6.09       0.334
  WS02004407           JUNCTION      0.00   537.08     0  02:42           0        6.07       0.016
  WS02004409           JUNCTION      0.00   536.74     0  02:42           0        6.07       0.038
  WS02004410           JUNCTION      0.00   536.78     0  02:46           0        6.06       0.065
  WS02004411           JUNCTION      0.00   536.55     0  02:46           0        6.06       0.085
  WS02004412           JUNCTION      0.00   536.57     0  02:47           0        6.05       0.116
  WS02004413           JUNCTION      0.00   536.58     0  02:47           0        6.05       0.208
  WS02006109           JUNCTION      1.23   558.99     0  02:30      0.0354        6.18       0.124
  WS02006110           JUNCTION      0.00   558.18     0  02:30           0        6.17       0.102
  WS02006111           JUNCTION      0.00   562.01     0  03:07           0        6.16       0.007
  WS02006112           JUNCTION      0.00   543.31     0  03:01           0        6.16       0.285
  WS02006113           JUNCTION      0.00   566.78     0  02:11           0        6.16       0.029
  WS02006115           JUNCTION      0.00   551.00     0  02:34           0        6.14       0.101
  WS02006116           JUNCTION      0.00   540.45     0  02:41           0        6.14       0.090
  WS02006228           JUNCTION      0.00   557.53     0  02:30           0        6.14       0.028
  WS02006229           JUNCTION      0.00   557.17     0  02:30           0        6.15       0.066
  WS02006230           JUNCTION     10.28   582.81     0  02:30       0.296        6.15       0.056
  WS02006231           JUNCTION      0.00   573.41     0  02:30           0        5.86       0.011
  WS02006232           JUNCTION      0.00   572.50     0  02:30           0        5.86       0.114
  WS02006234           JUNCTION      0.00   568.00     0  02:30           0        5.86      -0.092
  WS02006235           JUNCTION      0.00   561.57     0  02:30           0        5.88       0.095
  WS02006238           JUNCTION      0.00   427.07     0  02:05           0        4.89      -0.176
  WS02006239           JUNCTION      0.00   426.66     0  02:05           0        4.87      -0.165
  WS02006240           JUNCTION      0.00   424.64     0  02:05           0        4.86      -0.047
  WS02006242           JUNCTION      0.00   425.66     0  02:05           0        4.86      -0.005
  WS02006243           JUNCTION      0.00   426.34     0  02:05           0        4.85      -0.112
  WS02006245           JUNCTION      0.00   427.52     0  02:05           0        4.86       0.216
  WS02006247           JUNCTION      0.00   428.06     0  02:05           0        4.85      -0.022
  WS02006248           JUNCTION      0.00   428.42     0  02:05           0        4.85      -0.006
  WS02006249           JUNCTION      0.00   459.02     0  00:00           0        5.13       0.199
  WS02006251           JUNCTION      0.08   406.76     0  01:49     0.00222        5.13       0.014
  WS02006252           JUNCTION      0.00   400.00     0  00:00           0        5.12      -0.099
  WS02006256           JUNCTION      0.00   300.00     0  00:00           0        1.46      -0.322
  WSF200               JUNCTION      0.00   536.45     0  02:48           0        6.03       0.006
  YS02001580           JUNCTION      0.00   118.88     0  01:43           0     0.00429       0.293
  YS02001583           JUNCTION      0.00   195.06     0  01:43           0      0.0149      -6.708
  YS02001586           JUNCTION    786.58   786.76     0  01:53        1.94        1.95       0.077
  YS02001590           JUNCTION      0.00   318.03     0  02:06           0        1.45      -0.029
  YS02001593           JUNCTION      0.00   318.07     0  02:17           0        1.45       0.001
  YS02001596           JUNCTION      0.00   318.16     0  01:58           0        1.45      -0.012
  YS02001600           JUNCTION      0.00   318.08     0  01:58           0        1.45       0.004
  YS02001601           JUNCTION   1426.85  1744.32     0  01:51        2.65         4.1       0.016
  YS02001602           JUNCTION      0.00   542.27     0  01:42           0         2.4       0.014
  YS02001605           JUNCTION      0.00   541.71     0  01:42           0        2.26       0.016
  YS02001607           JUNCTION      0.00   540.73     0  01:42           0        2.26       0.081
  YS02001610           JUNCTION      0.00   779.35     0  01:53           0        2.58       0.083
  YS02001613           JUNCTION      0.00   544.26     0  01:42           0        2.02       0.075
  YS02001616           JUNCTION      0.00   551.68     0  01:42           0        2.02       0.015
  YS02001619           JUNCTION   1398.03  1398.03     0  01:53        3.11        4.81      -0.001
  YS02001622           JUNCTION      0.00   964.46     0  01:51           0        4.49      -0.009
  YS02001625           JUNCTION      0.00  1372.87     0  01:54           0        4.74       0.188
  YS02001629           JUNCTION      0.00   955.11     0  01:43           0        3.61       0.009
  YS02001633           JUNCTION   1071.36  1403.80     0  01:45        1.94        5.22       0.058
  YS02001641           JUNCTION      0.00  1399.53     0  01:45           0        4.91       0.051
  YS02001644           JUNCTION    960.41  1838.45     0  01:45        1.68        6.59       0.045
  YS02001647           JUNCTION      0.00  1836.67     0  01:45           0        6.04       0.004
  YS02001649           JUNCTION      0.00  2103.50     0  01:44           0        7.59       0.000
  YS02001652           JUNCTION      0.00   988.70     0  01:48           0        1.55      -0.081
  YS02001655           JUNCTION      0.15   988.20     0  01:48     0.00443        1.55      -0.089
  YS02001658           JUNCTION      0.00   988.09     0  01:48           0        1.55      -0.065
  YS02001661           JUNCTION      0.00   987.31     0  01:48           0        1.55       0.012
  YS02001664           JUNCTION    931.22   931.22     0  01:50        1.54        1.54      -0.016
  YS02001745           JUNCTION    605.91   605.91     0  01:50       0.929        0.93       0.121
  YS02001748           JUNCTION      0.04   644.56     0  01:49      0.0013       0.932      -0.351
  YS02001751           JUNCTION      0.01   646.88     0  01:49    0.000317       0.941       0.087
  YS02001754           JUNCTION      0.26   646.72     0  01:49     0.00749       0.954      -0.200
  YS02001757           JUNCTION      0.00  3549.14     0  01:49           0        11.5       0.032
  YS02001759           JUNCTION    839.56  1469.62     0  01:47        1.28           3      -0.014
  YS02001762           JUNCTION      0.00   835.92     0  01:47           0        1.71      -0.014
  YS02001765           JUNCTION      0.00   837.21     0  01:47           0        1.71      -0.006
  YS02001767           JUNCTION      0.54   839.21     0  01:47      0.0154        1.71      -0.006
  YS02001770           JUNCTION   1179.72  1179.72     0  01:51        1.96           2      -0.021
  YS02001774           JUNCTION      0.00   600.14     0  01:51           0       0.329       0.260
  YS02001779           JUNCTION      0.01   600.51     0  01:51    0.000144       0.282      -0.490
  YS02001783           JUNCTION      0.00  1167.49     0  01:48           0        4.38       0.005
  YS02001784           JUNCTION      1.06  1168.89     0  01:48      0.0305        4.41       0.011
  YS02001786           JUNCTION      0.06  1168.73     0  01:48     0.00162        4.41       0.014
  YS02001788           JUNCTION      0.07  1169.51     0  01:48     0.00204        4.41       0.007
  YS02001790           JUNCTION      0.15  1177.60     0  01:47     0.00446        4.42       0.030
  YS02001791           JUNCTION      0.00  1285.34     0  01:49           0        4.42      -0.033
  YS02001793           JUNCTION      0.00  1247.63     0  01:56           0        4.42       0.003
  YS02001882           JUNCTION      0.00    52.26     0  01:44           0      0.0129       4.504
  YS02001884           JUNCTION      0.00    82.74     0  01:43           0      0.0488       5.347
  YS02001887           JUNCTION    910.70   910.73     0  01:50        1.34        1.37       0.325
  YS02001890           JUNCTION      0.00   910.87     0  01:50           0        1.33       0.376
  YS02001895           JUNCTION      0.00   517.48     0  01:55           0        1.18       0.150
  YS02001898           JUNCTION      0.00   517.83     0  01:53           0        1.17       0.002
  YS02001901           JUNCTION      0.00   517.79     0  01:53           0        1.18       0.280
  YS02001904           JUNCTION      0.00   517.82     0  01:53           0        1.18       0.231
  YS02001907           JUNCTION      0.00  2107.62     0  01:51           0         4.1       0.440
  YS02001910           JUNCTION      0.00  1557.09     0  01:51           0        2.92       0.243
  YS02001915           JUNCTION   1039.38  1556.54     0  01:51        1.86        2.97       0.054
  YS02001918           JUNCTION      0.00   519.44     0  01:51           0        1.14      -0.008
  YS02001920           JUNCTION      2.87   518.91     0  01:51      0.0827        1.12       0.071
  YS02001923           JUNCTION      0.04   513.81     0  01:51     0.00109        1.02      -0.103
  YS02001926           JUNCTION      0.05   745.58     0  01:46      0.0015       0.998      -0.010
  YS02001929           JUNCTION    502.88   607.88     0  01:46       0.979       0.983      -0.006
  YS02006553           JUNCTION      0.00   794.11     0  02:11           0        2.48       0.481
  YS02006556           JUNCTION      0.00   794.17     0  02:11           0        2.49       0.324
  YS02006558           JUNCTION   1206.30  1206.30     0  01:50        1.96        4.42       0.082
  YS02006561           JUNCTION      0.00  1167.70     0  01:48           0        4.38      -0.004
  YS02163301           JUNCTION      0.00   928.75     0  01:45           0         3.6       0.032
  YS02163601           JUNCTION      0.11  1402.15     0  01:45     0.00317         4.9       0.093
  YS02164001           JUNCTION      0.00  1400.73     0  01:45           0         4.9       0.037
  CC-1                 OUTFALL       0.00   683.00     0  00:00           0        3.71       0.000
  CC-2                 OUTFALL       0.00   683.00     0  00:00           0        3.53       0.000
  JK-1                 OUTFALL       0.00  1000.00     0  00:00           0        1.67       0.000
  JK-2                 OUTFALL       0.00  1000.00     0  00:00           0        1.35       0.000
  WSC                  OUTFALL       0.00   554.85     0  03:06           0        6.55       0.000
  CC-storage           STORAGE       0.00  3548.51     0  01:49           0        13.8      -0.219
  JK-storage           STORAGE       0.00  1241.01     0  01:52           0        4.57      -0.197
  
  
  **********************
  Node Surcharge Summary
  **********************
  
  Surcharging occurs when water rises above the top of the highest conduit.
  ---------------------------------------------------------------------
                                               Max. Height   Min. Depth
                                   Hours       Above Crown    Below Rim
  Node                 Type      Surcharged         Meters       Meters
  ---------------------------------------------------------------------
  WS02006109           JUNCTION        2.28          0.318        1.502
  WS02006110           JUNCTION        0.99          0.268        1.582
  WS02006112           JUNCTION        0.95          0.062        1.618
  WS02006228           JUNCTION        2.26          0.327        1.873
  WS02006229           JUNCTION        2.29          0.398        2.052
  WS02006230           JUNCTION        1.00          0.290        1.280
  WS02006231           JUNCTION        1.06          0.375        1.155
  WS02006232           JUNCTION        2.38          0.552        0.928
  WS02006234           JUNCTION        1.30          0.524        0.716
  WS02006235           JUNCTION        2.27          0.643        0.647
  WS02006238           JUNCTION        2.32          0.674        0.756
  WS02006239           JUNCTION        2.28          0.623        0.667
  WS02006240           JUNCTION        2.30          0.603        0.787
  WS02006242           JUNCTION        2.40          0.635        0.185
  WS02006243           JUNCTION        2.31          0.517        0.253
  WS02006245           JUNCTION        2.31          0.468        0.382
  WS02006247           JUNCTION        2.32          0.460        0.300
  WS02006248           JUNCTION        2.29          0.380        0.000
  WS02006249           JUNCTION        2.31          0.390        0.000
  WS02006251           JUNCTION        1.10          0.353        0.827
  WS02006252           JUNCTION        2.85          1.100        0.000
  WS02006256           JUNCTION        6.02          2.050        0.000
  YS02001580           JUNCTION        0.72          0.450        0.000
  YS02001583           JUNCTION        0.73          0.470        0.030
  YS02001586           JUNCTION        0.88          0.510        0.000
  YS02001590           JUNCTION        0.96          0.750        0.000
  YS02001593           JUNCTION        0.96          0.733        0.107
  YS02001596           JUNCTION        1.08          0.966        0.104
  YS02001600           JUNCTION        1.23          1.190        0.000
  YS02001601           JUNCTION        1.57          1.440        0.000
  YS02001602           JUNCTION        1.48          1.270        0.000
  YS02001605           JUNCTION        1.44          1.180        0.000
  YS02001607           JUNCTION        0.95          0.651        0.029
  YS02001610           JUNCTION        0.97          0.680        0.000
  YS02001613           JUNCTION        0.94          0.683        0.017
  YS02001616           JUNCTION        0.90          0.610        0.000
  YS02001619           JUNCTION        0.89          0.610        0.000
  YS02001622           JUNCTION        0.88          0.620        0.000
  YS02001625           JUNCTION        1.08          0.780        0.000
  YS02001629           JUNCTION        0.83          0.470        0.000
  YS02001633           JUNCTION        1.10          1.038        0.022
  YS02001641           JUNCTION        1.06          1.063        0.037
  YS02001644           JUNCTION        1.03          0.920        0.000
  YS02001647           JUNCTION        0.81          0.805        0.095
  YS02001649           JUNCTION        0.96          1.050        0.000
  YS02001652           JUNCTION        0.73          0.946        0.184
  YS02001655           JUNCTION        0.53          0.973        0.227
  YS02001658           JUNCTION        0.27          0.974        0.326
  YS02001661           JUNCTION        0.05          0.415        0.975
  YS02001745           JUNCTION        0.01          0.604        0.746
  YS02001748           JUNCTION        0.21          0.872        0.318
  YS02001751           JUNCTION        0.38          0.988        0.212
  YS02001754           JUNCTION        0.63          1.011        0.139
  YS02001757           JUNCTION        1.04          1.193        0.017
  YS02001759           JUNCTION        0.93          1.190        0.020
  YS02001762           JUNCTION        0.89          1.149        0.001
  YS02001765           JUNCTION        0.83          1.098        0.002
  YS02001767           JUNCTION        0.80          1.030        0.000
  YS02001770           JUNCTION        0.77          0.920        0.000
  YS02001774           JUNCTION        0.87          1.003        0.047
  YS02001779           JUNCTION        0.61          0.680        0.000
  YS02001783           JUNCTION        0.62          0.507        1.093
  YS02001784           JUNCTION        0.60          0.384        1.106
  YS02001786           JUNCTION        0.49          0.117        1.313
  YS02001882           JUNCTION        0.57          0.830        0.000
  YS02001884           JUNCTION        0.58          0.866        0.004
  YS02001887           JUNCTION        0.62          0.848        0.102
  YS02001890           JUNCTION        0.63          0.760        0.000
  YS02001895           JUNCTION        0.56          0.750        0.000
  YS02001898           JUNCTION        0.55          0.740        0.000
  YS02001901           JUNCTION        0.60          0.843        0.027
  YS02001904           JUNCTION        0.59          0.661        0.189
  YS02001907           JUNCTION        0.84          0.950        0.000
  YS02001910           JUNCTION        0.66          1.042        0.058
  YS02001915           JUNCTION        0.56          1.000        0.000
  YS02001918           JUNCTION        0.48          0.810        0.000
  YS02001920           JUNCTION        0.49          1.140        0.000
  YS02001923           JUNCTION        0.15          0.820        0.000
  YS02001926           JUNCTION        0.18          0.900        0.000
  YS02001929           JUNCTION        0.01          0.780        0.000
  YS02006553           JUNCTION        0.86          1.000        0.190
  YS02006556           JUNCTION        0.75          0.978        0.372
  YS02006558           JUNCTION        0.74          0.976        0.424
  YS02006561           JUNCTION        0.44          0.179        0.971
  YS02163301           JUNCTION        1.09          0.935        0.095
  YS02163601           JUNCTION        1.14          1.080        0.000
  YS02164001           JUNCTION        1.06          1.067        0.033
  
  
  *********************
  Node Flooding Summary
  *********************
  
  Flooding refers to all water that overflows a node, whether it ponds or not.
  --------------------------------------------------------------------------
                                                             Total   Maximum
                                 Maximum   Time of Max       Flood    Ponded
                        Hours       Rate    Occurrence      Volume     Depth
  Node                 Flooded       LPS   days hr:min    10^6 ltr    Meters
  --------------------------------------------------------------------------
  WS02006248              0.01      2.52      0  02:30       0.000     0.000
  WS02006249              1.08     97.35      0  01:49       0.269     0.000
  WS02006252              0.01    245.63      0  00:00       0.000     0.000
  WS02006256              1.35    293.19      0  00:00       0.470     0.000
  YS02001580              0.01     91.83      0  01:43       0.000     0.000
  YS02001586              0.59    469.04      0  01:53       0.486     0.000
  YS02001590              0.01      4.67      0  01:43       0.000     0.000
  YS02001600              0.01      3.24      0  01:43       0.000     0.000
  YS02001601              0.80   1346.50      0  01:51       1.700     0.000
  YS02001602              0.70     62.06      0  02:00       0.141     0.000
  YS02001605              0.01      4.68      0  01:43       0.000     0.000
  YS02001610              0.61    779.21      0  01:53       0.879     0.000
  YS02001616              0.01     13.09      0  01:43       0.000     0.000
  YS02001619              0.01     47.25      0  01:43       0.000     0.000
  YS02001622              0.01    144.73      0  01:43       0.000     0.000
  YS02001625              0.58   1372.87      0  01:54       1.435     0.000
  YS02001629              0.14    306.97      0  01:49       0.079     0.000
  YS02001644              0.24   1055.64      0  01:51       0.534     0.000
  YS02001649              0.01     76.71      0  01:47       0.000     0.000
  YS02001767              0.01     95.78      0  01:46       0.000     0.000
  YS02001770              0.01    110.81      0  01:46       0.001     0.000
  YS02001779              0.21    600.47      0  01:51       0.263     0.000
  YS02001882              0.01     18.49      0  01:44       0.000     0.000
  YS02001890              0.20    397.86      0  01:50       0.151     0.000
  YS02001895              0.01     67.02      0  01:44       0.000     0.000
  YS02001898              0.01    110.42      0  01:44       0.000     0.000
  YS02001907              0.42   2107.59      0  01:51       1.616     0.000
  YS02001915              0.01    191.94      0  01:44       0.000     0.000
  YS02001918              0.01    269.72      0  01:46       0.004     0.000
  YS02001920              0.01     40.55      0  01:46       0.000     0.000
  YS02001923              0.01    316.46      0  01:46       0.001     0.000
  YS02001926              0.01    123.71      0  01:46       0.001     0.000
  YS02001929              0.01    184.74      0  01:46       0.001     0.000
  YS02163601              0.01      2.72      0  02:17       0.000     0.000
  
  
  **********************
  Storage Volume Summary
  **********************
  
  ------------------------------------------------------------------------------------------------
                         Average    Avg   Evap  Exfil     Maximum    Max    Time of Max    Maximum
                          Volume   Pcnt   Pcnt   Pcnt      Volume   Pcnt     Occurrence    Outflow
  Storage Unit           1000 m³   Full   Loss   Loss     1000 m³   Full    days hr:min        LPS
  ------------------------------------------------------------------------------------------------
  CC-storage               2.388   37.3    0.0    0.0       4.759   74.2       0  02:25    1783.53
  JK-storage               0.145   49.6    0.0    0.0       0.213   73.0       0  01:53    2300.00
  
  
  ***********************
  Outfall Loading Summary
  ***********************
  
  -----------------------------------------------------------
                         Flow       Avg       Max       Total
                         Freq      Flow      Flow      Volume
  Outfall Node           Pcnt       LPS       LPS    10^6 ltr
  -----------------------------------------------------------
  CC-1                  18.53    683.00    683.00       3.714
  CC-2                  17.63    683.00    683.00       3.526
  JK-1                   6.04   1000.00   1000.00       1.666
  JK-2                   4.93   1000.00   1000.00       1.351
  WSC                   99.96    297.31    554.85       6.550
  -----------------------------------------------------------
  System                29.42   3663.31   3920.36      16.807
  
  
  ********************
  Link Flow Summary
  ********************
  
  -----------------------------------------------------------------------------
                                 Maximum  Time of Max   Maximum    Max/    Max/
                                  |Flow|   Occurrence   |Veloc|    Full    Full
  Link                 Type          LPS  days hr:min     m/sec    Flow   Depth
  -----------------------------------------------------------------------------
  1                    CONDUIT    554.85     0  03:06      2.83    0.19    0.30
  WS02003060WS02003069 CONDUIT    552.95     0  02:49      1.64    0.22    0.34
  WS02003066WSF200     CONDUIT    536.45     0  02:48      2.85    0.09    0.22
  WS02003067WS02003066 CONDUIT    536.41     0  02:48      1.21    0.17    0.42
  WS02003069WS02003072 CONDUIT    553.06     0  03:04      1.37    0.27    0.39
  WS02003072WS02003073 CONDUIT    553.05     0  03:05      1.43    1.19    0.37
  WS02004401WS02004402 CONDUIT    538.17     0  02:41      0.98    0.65    0.86
  WS02004402WS02004403 CONDUIT    537.94     0  02:42      0.97    0.77    0.88
  WS02004403WS02004404 CONDUIT    537.48     0  02:42      0.92    0.39    0.93
  WS02004404WS02004405 CONDUIT    537.42     0  02:42      1.08    5.27    0.96
  WS02004405WS02004406 CONDUIT    537.83     0  02:42      0.99    1.06    0.96
  WS02004406WS02004407 CONDUIT    537.08     0  02:42      1.04    0.24    0.63
  WS02004407WS02004409 CONDUIT    536.74     0  02:42      1.51    0.19    0.48
  WS02004409WS02004410 CONDUIT    536.78     0  02:46      0.99    0.69    0.67
  WS02004410WS02004411 CONDUIT    536.55     0  02:46      0.94    0.73    0.69
  WS02004411WS02004412 CONDUIT    536.57     0  02:47      0.92    0.76    0.69
  WS02004412WS02004413 CONDUIT    536.58     0  02:47      0.82    0.36    0.78
  WS02004413WS02003067 CONDUIT    536.36     0  02:47      1.11    0.23    0.59
  WS02006109WS02006110 CONDUIT    558.18     0  02:30      1.11    1.07    1.00
  WS02006110WS02006113 CONDUIT    566.78     0  02:11      1.37    0.52    0.79
  WS02006111WS02006112 CONDUIT    543.31     0  03:01      1.81    0.26    0.67
  WS02006112WS02006115 CONDUIT    551.00     0  02:34      0.80    0.33    0.87
  WS02006113WS02006111 CONDUIT    562.01     0  03:07      2.47    0.67    0.46
  WS02006115WS02006116 CONDUIT    540.45     0  02:41      0.97    0.69    0.76
  WS02006116WS02004401 CONDUIT    538.56     0  02:41      0.98    0.74    0.84
  WS02006228WS02006109 CONDUIT    557.76     0  02:30      1.11    2.44    1.00
  WS02006229WS02006228 CONDUIT    557.53     0  02:30      1.14    1.85    1.00
  WS02006230WS02006229 CONDUIT    557.17     0  02:30      1.45   12.40    1.00
  WS02006231WS02006230 CONDUIT    572.53     0  02:30      1.57    8.68    1.00
  WS02006232WS02006231 CONDUIT    573.41     0  02:30      1.50    1.20    1.00
  WS02006234WS02006232 CONDUIT    572.50     0  02:30      1.49    1.16    1.00
  WS02006235WS02006234 CONDUIT    568.00     0  02:30      1.48    5.99    1.00
  WS02006238WS02006235 CONDUIT    425.52     0  02:05      1.45    0.95    1.00
  WS02006239WS02006238 CONDUIT    427.07     0  02:05      1.11    1.37    1.00
  WS02006240WS02006239 CONDUIT    426.66     0  02:05      1.24    1.34    1.00
  WS02006242WS02006240 CONDUIT    424.64     0  02:05      1.13    1.69    1.00
  WS02006243WS02006242 CONDUIT    425.66     0  02:05      1.40    0.91    1.00
  WS02006245WS02006243 CONDUIT    426.34     0  02:05      1.45    1.26    1.00
  WS02006247WS02006245 CONDUIT    427.52     0  02:05      1.43    3.39    1.00
  WS02006248WS02006247 CONDUIT    428.06     0  02:05      1.44    0.93    1.00
  WS02006249WS02006248 CONDUIT    428.42     0  02:05      1.36    2.35    1.00
  WS02006251WS02006249 CONDUIT    459.02     0  00:00      1.99    1.32    1.00
  WS02006252WS02006251 CONDUIT    406.68     0  01:49     26.77    1.49    1.00
  WS02006256WS02006235 CONDUIT    288.91     0  00:00      4.23    3.06    1.00
  WSF200WS02003060     CONDUIT    536.58     0  02:48      2.06    0.12    0.28
  YS02001580YS02001583 CONDUIT    118.88     0  01:43      0.75    0.46    1.00
  YS02001583YS02001586 CONDUIT    179.40     0  01:43      0.80    0.27    1.00
  YS02001586YS02001590 CONDUIT    318.03     0  02:06      1.26    0.56    1.00
  YS02001590YS02001593 CONDUIT    318.07     0  02:17      1.12    2.00    1.00
  YS02001593YS02001596 CONDUIT    318.16     0  01:58      1.74    0.50    1.00
  YS02001596YS02001600 CONDUIT    318.08     0  01:58      1.23    0.62    1.00
  YS02001600YS02001601 CONDUIT    318.18     0  02:17      1.13    0.55    1.00
  YS02001601YS02001602 CONDUIT    542.27     0  01:42      1.92    1.96    1.00
  YS02001602YS02001605 CONDUIT    541.71     0  01:42      1.92   11.46    1.00
  YS02001605YS02001607 CONDUIT    540.73     0  01:42      1.91    2.97    1.00
  YS02001607YS02001610 CONDUIT    539.34     0  01:43      0.69    0.51    1.00
  YS02001610YS02001613 CONDUIT    544.26     0  01:42      0.69    0.63    1.00
  YS02001613YS02001616 CONDUIT    551.68     0  01:42      0.71    0.47    1.00
  YS02001616YS02001619 CONDUIT    520.03     0  01:43      0.68    0.90    1.00
  YS02001619YS02001622 CONDUIT    964.46     0  01:51      1.23    1.42    1.00
  YS02001622YS02001625 CONDUIT    964.55     0  01:51      1.23    0.51    1.00
  YS02001625YS02001629 CONDUIT    955.11     0  01:43      1.22    0.45    1.00
  YS02001629YS02163301 CONDUIT    928.75     0  01:45      1.18    1.14    1.00
  YS02001633YS02163601 CONDUIT   1402.04     0  01:45      1.79    1.47    1.00
  YS02001641YS02001644 CONDUIT   1398.77     0  01:45      1.78    4.52    1.00
  YS02001644YS02001647 CONDUIT   1836.67     0  01:45      2.37    1.08    1.00
  YS02001647YS02001649 CONDUIT   1848.77     0  01:45      2.38    0.98    1.00
  YS02001649YS02001757 CONDUIT   2083.34     0  01:46      2.65    1.26    1.00
  YS02001652YS02001649 CONDUIT    988.92     0  01:48      1.26    0.49    1.00
  YS02001655YS02001652 CONDUIT    988.70     0  01:48      1.41    0.48    1.00
  YS02001658YS02001655 CONDUIT    988.04     0  01:48      1.96    0.42    1.00
  YS02001661YS02001658 CONDUIT    988.09     0  01:48      2.36    0.39    1.00
  YS02001664YS02001661 CONDUIT    987.31     0  01:48      2.42    0.31    0.95
  YS02001745YS02001748 CONDUIT    644.51     0  01:49      2.27    0.25    1.00
  YS02001748YS02001751 CONDUIT    646.87     0  01:49      1.77    0.33    1.00
  YS02001751YS02001754 CONDUIT    646.46     0  01:49      1.51    0.31    1.00
  YS02001754YS02001757 CONDUIT    646.91     0  01:49      0.82    0.26    1.00
  YS02001757CaochengTiaoxuchi CONDUIT   3548.51     0  01:49      4.57    1.54    1.00
  YS02001759YS02001757 CONDUIT   1467.16     0  01:47      1.87    1.04    1.00
  YS02001762YS02001759 CONDUIT    837.96     0  01:47      1.07    0.97    1.00
  YS02001765YS02001762 CONDUIT    835.92     0  01:47      1.06    0.78    1.00
  YS02001767YS02001765 CONDUIT    837.21     0  01:47      1.07    1.05    1.00
  YS02001770YS02001767 CONDUIT    838.67     0  01:47      1.07    3.32    1.00
  YS02001774YS02001770 CONDUIT    600.14     0  01:51      0.76    0.38    1.00
  YS02001779YS02001774 CONDUIT    600.51     0  01:51      0.76    0.30    1.00
  YS02001783YS02001784 CONDUIT   1167.83     0  01:48      2.32    1.61    1.00
  YS02001784YS02001785 CONDUIT   1168.67     0  01:48      2.32    2.72    1.00
  YS02001786YS02001788 CONDUIT   1169.44     0  01:48      2.48    2.25    0.89
  YS02001788YS02001790 CONDUIT   1177.45     0  01:47      2.71    0.87    0.84
  YS02001790YS02001791 CONDUIT   1285.34     0  01:49      3.43    1.40    0.71
  YS02001791YS02001793 CONDUIT   1247.63     0  01:56      6.76    0.54    0.44
  YS02001793JiankangQianchi CONDUIT   1241.01     0  01:52      2.47    0.10    0.65
  YS02001882YS02001884 CONDUIT     52.26     0  01:44      0.15    0.06    1.00
  YS02001884YS02001887 CONDUIT     82.74     0  01:43      0.11    0.11    1.00
  YS02001887YS02001890 CONDUIT    910.87     0  01:50      1.16    1.56    1.00
  YS02001890YS02001895 CONDUIT    517.48     0  01:55      0.66    0.24    1.00
  YS02001895YS02001898 CONDUIT    517.83     0  01:53      0.66    0.90    1.00
  YS02001898YS02001901 CONDUIT    517.79     0  01:53      0.66    0.33    1.00
  YS02001901YS02001904 CONDUIT    517.82     0  01:53      0.66    0.80    1.00
  YS02001904YS02001907 CONDUIT    518.09     0  01:53      0.66    0.18    1.00
  YS02001907YS02006553 CONDUIT    794.11     0  02:11      0.88    0.93    1.00
  YS02001910YS02001907 CONDUIT   1558.21     0  01:51      1.98    0.88    1.00
  YS02001915YS02001910 CONDUIT   1557.09     0  01:51      1.98    0.77    1.00
  YS02001918YS02001915 CONDUIT    519.36     0  01:51      0.66    0.29    1.00
  YS02001920YS02001918 CONDUIT    519.44     0  01:51      0.66    0.50    1.00
  YS02001923YS02001920 CONDUIT    516.04     0  01:51      0.71    0.23    1.00
  YS02001926YS02001923 CONDUIT    513.77     0  01:51      0.97    0.73    1.00
  YS02001929YS02001926 CONDUIT    513.02     0  01:51      1.16    0.24    1.00
  YS02006553YS02006556 CONDUIT    794.17     0  02:11      1.01    0.68    1.00
  YS02006556YS02006558 CONDUIT    796.31     0  02:11      1.01    0.63    1.00
  YS02006558YS02006561 CONDUIT   1167.70     0  01:48      4.13    2.58    1.00
  YS02006561YS02001783 CONDUIT   1167.49     0  01:48      2.32    0.60    1.00
  YS02163301YS02001633 CONDUIT    929.89     0  01:45      1.18    0.87    1.00
  YS02163601YS02164001 CONDUIT   1400.73     0  01:45      1.78    1.24    1.00
  YS02164001YS02001641 CONDUIT   1399.53     0  01:45      1.78    1.91    1.00
  CC-R1                PUMP       683.00     0  00:00              1.00
  CC-R2                PUMP       683.00     0  00:00              1.00
  CC-S1                PUMP       200.00     0  00:00              1.00
  CC-S2                PUMP       200.00     0  00:00              1.00
  JK-R1                PUMP      1000.00     0  00:00              1.00
  JK-R2                PUMP      1000.00     0  00:00              1.00
  JK-S                 PUMP       300.00     0  00:00              1.00
  
  
  ***************************
  Flow Classification Summary
  ***************************
  
  -------------------------------------------------------------------------------------
                      Adjusted    ---------- Fraction of Time in Flow Class ---------- 
                       /Actual         Up    Down  Sub   Sup   Up    Down  Norm  Inlet 
  Conduit               Length    Dry  Dry   Dry   Crit  Crit  Crit  Crit  Ltd   Ctrl  
  -------------------------------------------------------------------------------------
  1                       1.00   0.00  0.00  0.00  0.00  1.00  0.00  0.00  0.48  0.00
  WS02003060WS02003069    1.00   0.00  0.00  0.00  0.98  0.02  0.00  0.00  0.60  0.00
  WS02003066WSF200        1.00   0.13  0.00  0.00  0.00  0.87  0.00  0.00  0.74  0.00
  WS02003067WS02003066    1.00   0.10  0.02  0.00  0.88  0.00  0.00  0.00  0.00  0.00
  WS02003069WS02003072    1.00   0.00  0.00  0.00  0.99  0.01  0.00  0.00  0.68  0.00
  WS02003072WS02003073    1.00   0.00  0.00  0.00  0.00  0.00  0.00  1.00  0.00  0.00
  WS02004401WS02004402    1.00   0.02  0.00  0.00  0.98  0.00  0.00  0.00  0.00  0.00
  WS02004402WS02004403    1.00   0.02  0.00  0.00  0.97  0.00  0.00  0.00  0.00  0.00
  WS02004403WS02004404    1.00   0.00  0.03  0.00  0.97  0.00  0.00  0.00  0.00  0.00
  WS02004404WS02004405    1.00   0.00  0.00  0.00  1.00  0.00  0.00  0.00  0.00  0.00
  WS02004405WS02004406    1.00   0.00  0.00  0.00  1.00  0.00  0.00  0.00  0.00  0.00
  WS02004406WS02004407    1.00   0.00  0.05  0.00  0.95  0.00  0.00  0.00  0.00  0.00
  WS02004407WS02004409    1.00   0.05  0.00  0.00  0.94  0.01  0.00  0.00  0.94  0.00
  WS02004409WS02004410    1.00   0.05  0.00  0.00  0.95  0.00  0.00  0.00  0.03  0.00
  WS02004410WS02004411    1.00   0.05  0.00  0.00  0.95  0.00  0.00  0.00  0.01  0.00
  WS02004411WS02004412    1.00   0.05  0.00  0.00  0.95  0.00  0.00  0.00  0.00  0.00
  WS02004412WS02004413    1.00   0.05  0.00  0.00  0.94  0.00  0.00  0.00  0.01  0.00
  WS02004413WS02003067    1.00   0.06  0.04  0.00  0.00  0.00  0.90  0.00  0.00  0.00
  WS02006109WS02006110    1.00   0.00  0.01  0.00  0.98  0.00  0.01  0.00  0.00  0.00
  WS02006110WS02006113    1.00   0.01  0.01  0.00  0.98  0.00  0.00  0.00  0.00  0.00
  WS02006111WS02006112    1.00   0.02  0.00  0.00  0.98  0.00  0.00  0.00  0.98  0.00
  WS02006112WS02006115    1.00   0.02  0.00  0.00  0.97  0.00  0.00  0.00  0.00  0.00
  WS02006113WS02006111    1.00   0.02  0.00  0.00  0.00  0.98  0.00  0.00  0.16  0.00
  WS02006115WS02006116    1.00   0.02  0.00  0.00  0.97  0.00  0.00  0.01  0.00  0.00
  WS02006116WS02004401    1.00   0.02  0.00  0.00  0.98  0.00  0.00  0.00  0.00  0.00
  WS02006228WS02006109    1.00   0.00  0.00  0.00  1.00  0.00  0.00  0.00  0.00  0.00
  WS02006229WS02006228    1.00   0.00  0.00  0.00  0.99  0.00  0.00  0.01  0.00  0.00
  WS02006230WS02006229    1.00   0.00  0.00  0.00  0.99  0.00  0.00  0.01  0.00  0.00
  WS02006231WS02006230    1.00   0.00  0.00  0.00  0.33  0.00  0.67  0.00  0.00  0.00
  WS02006232WS02006231    1.00   0.00  0.00  0.00  0.99  0.00  0.01  0.00  0.00  0.00
  WS02006234WS02006232    1.00   0.00  0.00  0.00  1.00  0.00  0.00  0.00  0.15  0.00
  WS02006235WS02006234    1.00   0.00  0.00  0.00  0.79  0.00  0.21  0.00  0.00  0.00
  WS02006238WS02006235    1.00   0.00  0.00  0.00  1.00  0.00  0.00  0.00  0.00  0.00
  WS02006239WS02006238    1.00   0.00  0.00  0.00  1.00  0.00  0.00  0.00  0.26  0.00
  WS02006240WS02006239    1.00   0.00  0.00  0.00  0.63  0.00  0.00  0.36  0.01  0.00
  WS02006242WS02006240    1.00   0.00  0.00  0.00  0.99  0.00  0.01  0.00  0.00  0.00
  WS02006243WS02006242    1.00   0.00  0.00  0.00  0.99  0.00  0.00  0.01  0.42  0.00
  WS02006245WS02006243    1.00   0.00  0.00  0.00  0.76  0.00  0.00  0.24  0.01  0.00
  WS02006247WS02006245    1.00   0.00  0.00  0.00  0.99  0.00  0.00  0.01  0.00  0.00
  WS02006248WS02006247    1.00   0.00  0.00  0.00  0.99  0.00  0.00  0.01  0.22  0.00
  WS02006249WS02006248    1.00   0.00  0.00  0.00  0.59  0.00  0.41  0.00  0.00  0.00
  WS02006251WS02006249    1.00   0.00  0.00  0.00  0.99  0.01  0.00  0.00  0.43  0.00
  WS02006252WS02006251    1.00   0.00  0.45  0.00  0.14  0.00  0.41  0.00  0.00  0.00
  WS02006256WS02006235    1.00   0.00  0.00  0.00  1.00  0.00  0.00  0.00  0.00  0.00
  WSF200WS02003060        1.00   0.00  0.13  0.00  0.28  0.60  0.00  0.00  0.35  0.00
  YS02001580YS02001583    1.00   0.21  0.58  0.00  0.21  0.00  0.00  0.00  0.67  0.00
  YS02001583YS02001586    1.00   0.42  0.31  0.00  0.27  0.00  0.00  0.00  0.67  0.00
  YS02001586YS02001590    1.00   0.13  0.00  0.00  0.43  0.04  0.00  0.40  0.34  0.00
  YS02001590YS02001593    1.00   0.13  0.01  0.00  0.14  0.00  0.73  0.00  0.00  0.00
  YS02001593YS02001596    1.00   0.13  0.00  0.00  0.15  0.01  0.00  0.70  0.02  0.00
  YS02001596YS02001600    1.00   0.14  0.00  0.00  0.21  0.01  0.00  0.64  0.04  0.00
  YS02001600YS02001601    1.00   0.13  0.01  0.00  0.86  0.00  0.00  0.00  0.60  0.00
  YS02001601YS02001602    1.00   0.13  0.01  0.00  0.87  0.00  0.00  0.00  0.00  0.00
  YS02001602YS02001605    1.00   0.13  0.00  0.00  0.86  0.00  0.00  0.00  0.00  0.00
  YS02001605YS02001607    1.00   0.14  0.00  0.00  0.86  0.00  0.00  0.00  0.00  0.00
  YS02001607YS02001610    1.00   0.13  0.01  0.00  0.86  0.00  0.00  0.00  0.01  0.00
  YS02001610YS02001613    1.00   0.13  0.00  0.00  0.87  0.00  0.00  0.00  0.00  0.00
  YS02001613YS02001616    1.00   0.13  0.00  0.00  0.87  0.00  0.00  0.00  0.00  0.00
  YS02001616YS02001619    1.00   0.13  0.00  0.00  0.87  0.00  0.00  0.00  0.00  0.00
  YS02001619YS02001622    1.00   0.13  0.00  0.00  0.87  0.00  0.00  0.00  0.29  0.00
  YS02001622YS02001625    1.00   0.13  0.00  0.00  0.87  0.00  0.00  0.00  0.04  0.00
  YS02001625YS02001629    1.00   0.13  0.04  0.00  0.18  0.00  0.65  0.00  0.00  0.00
  YS02001629YS02163301    1.00   0.15  0.01  0.00  0.84  0.00  0.00  0.00  0.00  0.00
  YS02001633YS02163601    1.00   0.00  0.01  0.00  0.99  0.00  0.00  0.00  0.15  0.00
  YS02001641YS02001644    1.00   0.00  0.01  0.00  0.99  0.00  0.00  0.00  0.00  0.00
  YS02001644YS02001647    1.00   0.00  0.17  0.00  0.83  0.00  0.00  0.00  0.00  0.00
  YS02001647YS02001649    1.00   0.00  0.17  0.00  0.56  0.27  0.00  0.00  0.55  0.00
  YS02001649YS02001757    1.00   0.00  0.00  0.00  0.87  0.13  0.00  0.00  0.39  0.00
  YS02001652YS02001649    1.00   0.00  0.00  0.00  0.97  0.03  0.00  0.00  0.72  0.00
  YS02001655YS02001652    1.00   0.00  0.00  0.00  0.21  0.01  0.00  0.78  0.05  0.00
  YS02001658YS02001655    1.00   0.00  0.14  0.00  0.68  0.18  0.00  0.00  0.66  0.00
  YS02001661YS02001658    1.00   0.14  0.00  0.00  0.52  0.34  0.00  0.00  0.69  0.00
  YS02001664YS02001661    1.00   0.13  0.00  0.00  0.77  0.10  0.00  0.00  0.85  0.00
  YS02001745YS02001748    1.00   0.00  0.00  0.00  0.12  0.01  0.00  0.87  0.05  0.00
  YS02001748YS02001751    1.00   0.00  0.00  0.00  0.85  0.15  0.00  0.00  0.77  0.00
  YS02001751YS02001754    1.00   0.00  0.00  0.00  0.18  0.00  0.00  0.82  0.02  0.00
  YS02001754YS02001757    1.00   0.00  0.00  0.00  1.00  0.00  0.00  0.00  0.78  0.00
  YS02001757CaochengTiaoxuchi    1.00   0.00  0.00  0.00  0.97  0.03  0.00  0.00  0.63  0.00
  YS02001759YS02001757    1.00   0.00  0.00  0.00  0.99  0.01  0.00  0.00  0.52  0.00
  YS02001762YS02001759    1.00   0.00  0.00  0.00  1.00  0.00  0.00  0.00  0.05  0.00
  YS02001765YS02001762    1.00   0.00  0.00  0.00  1.00  0.00  0.00  0.00  0.65  0.00
  YS02001767YS02001765    1.00   0.00  0.00  0.00  1.00  0.00  0.00  0.00  0.01  0.00
  YS02001770YS02001767    1.00   0.00  0.00  0.00  1.00  0.00  0.00  0.00  0.00  0.00
  YS02001774YS02001770    1.00   0.00  0.13  0.00  0.70  0.00  0.17  0.00  0.03  0.00
  YS02001779YS02001774    1.00   0.00  0.00  0.00  1.00  0.00  0.00  0.00  0.77  0.00
  YS02001783YS02001784    1.00   0.00  0.17  0.00  0.83  0.00  0.00  0.00  0.55  0.00
  YS02001784YS02001785    1.00   0.00  0.00  0.00  1.00  0.00  0.00  0.00  0.16  0.00
  YS02001786YS02001788    1.00   0.00  0.00  0.00  0.79  0.21  0.00  0.00  0.00  0.00
  YS02001788YS02001790    1.00   0.00  0.00  0.00  0.21  0.79  0.00  0.00  0.80  0.00
  YS02001790YS02001791    1.00   0.00  0.00  0.00  0.01  0.99  0.00  0.00  0.16  0.00
  YS02001791YS02001793    1.00   0.00  0.00  0.00  0.00  1.00  0.00  0.00  0.01  0.00
  YS02001793JiankangQianchi    1.00   0.00  0.00  0.00  0.96  0.04  0.00  0.00  0.97  0.00
  YS02001882YS02001884    1.00   0.15  0.01  0.00  0.84  0.00  0.00  0.00  0.00  0.00
  YS02001884YS02001887    1.00   0.06  0.05  0.00  0.89  0.00  0.00  0.00  0.00  0.00
  YS02001887YS02001890    1.00   0.00  0.00  0.00  0.97  0.00  0.03  0.00  0.00  0.00
  YS02001890YS02001895    1.00   0.00  0.16  0.00  0.84  0.00  0.00  0.00  0.00  0.00
  YS02001895YS02001898    1.00   0.16  0.00  0.00  0.82  0.00  0.02  0.00  0.00  0.00
  YS02001898YS02001901    1.00   0.16  0.00  0.00  0.84  0.00  0.00  0.00  0.01  0.00
  YS02001901YS02001904    1.00   0.16  0.00  0.00  0.84  0.00  0.00  0.00  0.00  0.00
  YS02001904YS02001907    1.00   0.00  0.16  0.00  0.84  0.00  0.00  0.00  0.00  0.00
  YS02001907YS02006553    1.00   0.00  0.02  0.00  0.98  0.00  0.00  0.00  0.00  0.00
  YS02001910YS02001907    1.00   0.00  0.00  0.00  0.97  0.00  0.00  0.03  0.12  0.00
  YS02001915YS02001910    1.00   0.00  0.00  0.00  0.97  0.03  0.00  0.00  0.15  0.00
  YS02001918YS02001915    1.00   0.00  0.01  0.00  0.98  0.02  0.00  0.00  0.74  0.00
  YS02001920YS02001918    1.00   0.00  0.01  0.00  0.99  0.00  0.00  0.00  0.00  0.00
  YS02001923YS02001920    1.00   0.00  0.00  0.00  1.00  0.00  0.00  0.00  0.91  0.00
  YS02001926YS02001923    1.00   0.00  0.07  0.00  0.07  0.00  0.86  0.00  0.00  0.00
  YS02001929YS02001926    1.00   0.00  0.13  0.00  0.87  0.00  0.00  0.00  0.81  0.00
  YS02006553YS02006556    1.00   0.01  0.00  0.00  0.99  0.00  0.00  0.00  0.03  0.00
  YS02006556YS02006558    1.00   0.00  0.00  0.00  1.00  0.00  0.00  0.00  0.00  0.00
  YS02006558YS02006561    1.00   0.17  0.00  0.00  0.07  0.76  0.00  0.00  0.18  0.00
  YS02006561YS02001783    1.00   0.17  0.00  0.00  0.10  0.73  0.00  0.00  0.68  0.00
  YS02163301YS02001633    1.00   0.00  0.15  0.00  0.85  0.00  0.00  0.00  0.00  0.00
  YS02163601YS02164001    1.00   0.00  0.08  0.00  0.92  0.00  0.00  0.00  0.00  0.00
  YS02164001YS02001641    1.00   0.01  0.07  0.00  0.92  0.00  0.00  0.00  0.05  0.00
  
  
  *************************
  Conduit Surcharge Summary
  *************************
  
  ----------------------------------------------------------------------------
                                                           Hours        Hours 
                         --------- Hours Full --------   Above Full   Capacity
  Conduit                Both Ends  Upstream  Dnstream   Normal Flow   Limited
  ----------------------------------------------------------------------------
  WS02003072WS02003073        0.01      0.01      0.01      1.28         0.01
  WS02004404WS02004405        0.01      0.01      0.01      4.38         0.01
  WS02004405WS02004406        0.01      0.01      0.01      0.90         0.01
  WS02006109WS02006110        0.99      0.99      2.37      1.05         0.01
  WS02006110WS02006113        0.01      0.01      2.32      0.01         0.01
  WS02006111WS02006112        0.01      0.01      3.01      0.01         0.01
  WS02006112WS02006115        0.01      0.01      0.95      0.01         0.01
  WS02006228WS02006109        2.28      2.37      2.28      3.62         2.28
  WS02006229WS02006228        2.26      2.29      2.26      2.86         2.26
  WS02006230WS02006229        2.50      2.75      2.50      4.67         2.50
  WS02006231WS02006230        1.00      1.00      1.09      4.51         0.01
  WS02006232WS02006231        1.06      1.06      2.38      1.11         0.01
  WS02006234WS02006232        2.20      2.21      2.38      1.10         1.10
  WS02006235WS02006234        1.30      1.30      2.27      4.44         0.01
  WS02006238WS02006235        2.29      2.29      2.39      0.01         0.01
  WS02006239WS02006238        2.32      2.36      2.32      2.69         2.19
  WS02006240WS02006239        2.28      2.31      2.28      2.67         2.08
  WS02006242WS02006240        2.30      2.30      2.49      2.96         0.01
  WS02006243WS02006242        2.32      2.32      2.40      0.01         0.02
  WS02006245WS02006243        2.31      2.32      2.31      1.69         1.38
  WS02006247WS02006245        2.31      2.33      2.31      4.23         2.30
  WS02006248WS02006247        2.30      2.30      2.32      0.01         0.03
  WS02006249WS02006248        2.29      2.29      2.31      4.20         0.01
  WS02006251WS02006249        2.30      2.31      2.31      2.78         2.26
  WS02006252WS02006251        2.84      2.84      2.85      2.84         0.01
  WS02006256WS02006235        4.45      4.48      6.00      1.35         0.01
  YS02001580YS02001583        0.72      0.72      0.79      0.01         0.01
  YS02001583YS02001586        0.73      0.73      0.88      0.01         0.01
  YS02001586YS02001590        0.89      0.89      0.96      0.01         0.01
  YS02001590YS02001593        0.96      0.96      0.98      1.02         0.01
  YS02001593YS02001596        0.97      0.97      1.08      0.01         0.01
  YS02001596YS02001600        1.12      1.12      1.23      0.01         0.01
  YS02001600YS02001601        1.30      1.30      1.57      0.01         0.01
  YS02001601YS02001602        1.48      1.48      1.60      1.23         0.01
  YS02001602YS02001605        1.44      1.44      1.48      2.30         0.01
  YS02001605YS02001607        1.39      1.44      1.39      1.54         1.39
  YS02001607YS02001610        0.95      0.95      0.97      0.01         0.01
  YS02001610YS02001613        0.94      0.94      0.97      0.01         0.01
  YS02001613YS02001616        0.90      0.90      0.94      0.01         0.01
  YS02001616YS02001619        0.89      0.89      0.90      0.01         0.03
  YS02001619YS02001622        0.88      0.89      0.88      0.95         0.84
  YS02001622YS02001625        0.88      0.88      1.08      0.01         0.01
  YS02001625YS02001629        0.83      0.83      1.08      0.01         0.01
  YS02001629YS02163301        1.08      1.08      1.09      0.05         0.16
  YS02001633YS02163601        1.10      1.10      1.14      0.35         0.33
  YS02001641YS02001644        1.03      1.06      1.03      1.63         1.01
  YS02001644YS02001647        0.81      0.81      1.03      0.04         0.01
  YS02001647YS02001649        0.81      0.81      0.96      0.01         0.01
  YS02001649YS02001757        0.95      0.96      1.04      0.06         0.05
  YS02001652YS02001649        0.76      0.76      0.96      0.01         0.01
  YS02001655YS02001652        0.53      0.53      0.73      0.01         0.01
  YS02001658YS02001655        0.27      0.27      0.53      0.01         0.01
  YS02001661YS02001658        0.05      0.05      0.27      0.01         0.01
  YS02001664YS02001661        0.01      0.01      0.12      0.01         0.01
  YS02001745YS02001748        0.01      0.01      0.21      0.01         0.01
  YS02001748YS02001751        0.25      0.25      0.38      0.01         0.01
  YS02001751YS02001754        0.38      0.38      0.63      0.01         0.01
  YS02001754YS02001757        0.67      0.67      1.04      0.01         0.01
  YS02001757CaochengTiaoxuchi        0.95      1.04      2.10      0.43         0.32
  YS02001759YS02001757        0.93      0.93      1.04      0.05         0.05
  YS02001762YS02001759        0.89      0.89      0.93      0.01         0.02
  YS02001765YS02001762        0.83      0.83      0.89      0.01         0.01
  YS02001767YS02001765        0.80      0.80      0.83      0.01         0.02
  YS02001770YS02001767        0.79      0.79      0.80      0.62         0.55
  YS02001774YS02001770        0.77      0.77      0.87      0.01         0.01
  YS02001779YS02001774        0.61      0.61      0.87      0.01         0.01
  YS02001783YS02001784        0.60      0.62      0.60      0.78         0.60
  YS02001784YS02001785        0.49      0.60      0.49      1.03         0.49
  YS02001786YS02001788        0.01      0.49      0.01      0.88         0.01
  YS02001790YS02001791        0.01      0.01      0.01      0.58         0.01
  YS02001793JiankangQianchi        0.01      0.01      7.70      0.01         0.01
  YS02001882YS02001884        0.57      0.57      0.58      0.01         0.01
  YS02001884YS02001887        0.60      0.60      0.62      0.01         0.01
  YS02001887YS02001890        0.63      0.63      0.64      0.16         0.01
  YS02001890YS02001895        0.56      0.56      0.66      0.01         0.01
  YS02001895YS02001898        0.55      0.55      0.56      0.01         0.01
  YS02001898YS02001901        0.56      0.56      0.60      0.01         0.01
  YS02001901YS02001904        0.59      0.59      0.60      0.01         0.01
  YS02001904YS02001907        0.59      0.59      0.86      0.01         0.01
  YS02001907YS02006553        1.04      1.04      1.12      0.01         0.01
  YS02001910YS02001907        0.66      0.66      0.83      0.01         0.01
  YS02001915YS02001910        0.56      0.56      0.66      0.01         0.01
  YS02001918YS02001915        0.48      0.48      0.56      0.01         0.01
  YS02001920YS02001918        0.48      0.48      0.49      0.01         0.01
  YS02001923YS02001920        0.43      0.43      0.49      0.01         0.01
  YS02001926YS02001923        0.15      0.15      0.18      0.01         0.01
  YS02001929YS02001926        0.01      0.01      0.18      0.01         0.01
  YS02006553YS02006556        0.75      0.75      0.86      0.01         0.01
  YS02006556YS02006558        0.80      0.80      0.87      0.01         0.01
  YS02006558YS02006561        0.52      0.74      0.52      0.98         0.52
  YS02006561YS02001783        0.44      0.44      0.62      0.01         0.01
  YS02163301YS02001633        1.09      1.09      1.12      0.01         0.01
  YS02163601YS02164001        1.06      1.06      1.14      0.06         0.01
  YS02164001YS02001641        1.06      1.06      1.06      0.77         0.75
  
  
  ***************
  Pumping Summary
  ***************
  
  ---------------------------------------------------------------------------------------------------------
                                                  Min       Avg       Max     Total     Power    % Time Off
                        Percent   Number of      Flow      Flow      Flow    Volume     Usage    Pump Curve
  Pump                 Utilized   Start-Ups       LPS       LPS       LPS  10^6 ltr     Kw-hr    Low   High
  ---------------------------------------------------------------------------------------------------------
  CC-R1                   18.87           3      0.00    683.00    683.00     3.713     69.92    0.0   15.5
  CC-R2                   17.92           3      0.00    683.00    683.00     3.524     66.43    0.0   16.3
  CC-S1                   50.21          13      0.00    200.00    200.00     2.892     17.37    0.0    0.0
  CC-S2                   38.76          12      0.00    200.00    200.00     2.233     13.18    0.0    0.0
  JK-R1                    5.78          10      0.00   1000.00   1000.00     1.666     15.74    0.0    0.0
  JK-R2                    4.69           9      0.00   1000.00   1000.00     1.350     12.69    0.0    0.0
  JK-S                    16.90           9      0.00    300.00    300.00     1.461     24.67    0.0    0.0
  

  Analysis begun on:  Wed Jan 15 10:22:07 2025
  Analysis ended on:  Wed Jan 15 10:22:09 2025
  Total elapsed time: 00:00:02