
  EPA STORM WATER MANAGEMENT MODEL - VERSION 5.2 (Build 5.2.4)
  PYSWMM TOOLKIT API - VERSION v1.0 (2023-11-27)
  ------------------------------------------------------------

  WARNING 04: minimum elevation drop used for Conduit WS02004404WS02004405
  WARNING 03: negative offset ignored for Link YS02001904YS02001907
  
  ****************
  Analysis Options
  ****************
  Flow Units ............... LPS
  Process Models:
    Rainfall/Runoff ........ YES
    RDII ................... NO
    Snowmelt ............... NO
    Groundwater ............ NO
    Flow Routing ........... YES
    Ponding Allowed ........ NO
    Water Quality .......... NO
  Infiltration Method ...... HORTON
  Flow Routing Method ...... DYNWAVE
  Surcharge Method ......... EXTRAN
  Starting Date ............ 08/28/2015 08:00:00
  Ending Date .............. 08/28/2015 16:00:00
  Antecedent Dry Days ...... 8.0
  Report Time Step ......... 00:01:00
  Wet Time Step ............ 00:01:00
  Dry Time Step ............ 00:01:00
  Routing Time Step ........ 30.00 sec
  Variable Time Step ....... YES
  Maximum Trials ........... 8
  Number of Threads ........ 4
  Head Tolerance ........... 0.001500 m
  
  
  **************************        Volume         Depth
  Runoff Quantity Continuity     hectare-m            mm
  **************************     ---------       -------
  Total Precipitation ......         2.710        81.689
  Evaporation Loss .........         0.000         0.000
  Infiltration Loss ........         0.103         3.094
  Surface Runoff ...........         2.575        77.618
  Final Storage ............         0.033         0.996
  Continuity Error (%) .....        -0.023
  
  
  **************************        Volume        Volume
  Flow Routing Continuity        hectare-m      10^6 ltr
  **************************     ---------     ---------
  Dry Weather Inflow .......         0.025         0.251
  Wet Weather Inflow .......         2.575        25.748
  Groundwater Inflow .......         0.000         0.000
  RDII Inflow ..............         0.000         0.000
  External Inflow ..........         0.083         0.834
  External Outflow .........         1.727        17.272
  Flooding Loss ............         1.017        10.172
  Evaporation Loss .........         0.000         0.000
  Exfiltration Loss ........         0.000         0.000
  Initial Stored Volume ....         0.243         2.431
  Final Stored Volume ......         0.187         1.872
  Continuity Error (%) .....        -0.180
  
  
  *************************
  Highest Continuity Errors
  *************************
  Node YS02001884 (5.11%)
  Node YS02001583 (-4.15%)
  
  
  ***************************
  Time-Step Critical Elements
  ***************************
  Link WS02006252WS02006251 (62.53%)
  Link WS02004404WS02004405 (8.31%)
  Link WS02006238WS02006235 (7.34%)
  Link WS02006235WS02006234 (6.59%)
  Link YS02001791YS02001793 (6.15%)
  
  
  ********************************
  Highest Flow Instability Indexes
  ********************************
  Link WS02006113WS02006111 (54)
  Link WS02006111WS02006112 (24)
  Link WS02006238WS02006235 (12)
  Link WS02006256WS02006235 (11)
  Link WS02006252WS02006251 (11)
  
  
  *********************************
  Most Frequent Nonconverging Nodes
  *********************************
  Node CC-1 (7.68%)
  Node CC-2 (7.68%)
  Node JK-1 (7.68%)
  Node JK-2 (7.68%)
  Node WSC (7.68%)
  
  
  *************************
  Routing Time Step Summary
  *************************
  Minimum Time Step           :     0.02 sec
  Average Time Step           :     1.57 sec
  Maximum Time Step           :     7.04 sec
  % of Time in Steady State   :     0.00
  Average Iterations per Step :     2.72
  % of Steps Not Converging   :     7.68
  Time Step Frequencies       :
     30.000 - 13.228 sec      :     0.00 %
     13.228 -  5.833 sec      :     6.81 %
      5.833 -  2.572 sec      :    11.62 %
      2.572 -  1.134 sec      :    15.56 %
      1.134 -  0.500 sec      :    66.01 %
  
  
  ***************************
  Subcatchment Runoff Summary
  ***************************
  
  ------------------------------------------------------------------------------------------------------------------------------
                            Total      Total      Total      Total     Imperv       Perv      Total       Total     Peak  Runoff
                           Precip      Runon       Evap      Infil     Runoff     Runoff     Runoff      Runoff   Runoff   Coeff
  Subcatchment                 mm         mm         mm         mm         mm         mm         mm    10^6 ltr      LPS
  ------------------------------------------------------------------------------------------------------------------------------
  sub60                     81.69       0.00       0.00       1.84      70.69       7.97      78.66        1.03   759.21   0.963
  sub61                     81.69       0.00       0.00       2.67      66.68      11.22      77.90        1.43  1056.54   0.954
  sub62                     81.69       0.00       0.00       1.22      73.87       5.31      79.19        2.17  1480.99   0.969
  sub63                     81.69       0.00       0.00       4.95      57.03      18.75      75.78        1.72  1203.95   0.928
  sub64                     81.69       0.00       0.00       2.50      68.23       9.76      77.99        1.87  1225.00   0.955
  sub65                     81.69       0.00       0.00       2.16      69.82       8.46      78.28        2.16  1373.96   0.958
  sub66                     81.69       0.00       0.00       6.18      56.92      17.51      74.43        3.47  1846.91   0.911
  sub67                     81.69       0.00       0.00       1.18      73.92       5.36      79.28        1.47  1134.01   0.970
  sub68                     81.69       0.00       0.00       2.21      69.07       9.23      78.30        2.15  1523.79   0.959
  sub69                     81.69       0.00       0.00       1.99      69.33      10.26      79.59        2.95  1826.33   0.974
  sub70                     81.69       0.00       0.00       6.73      53.75      21.04      74.79        2.16  1038.85   0.916
  sub71                     81.69       0.00       0.00       1.26      73.83       5.28      79.11        2.07  1323.00   0.968
  sub72                     81.69       0.00       0.00       1.12      74.57       4.60      79.17        1.09   646.61   0.969
  
  
  ******************
  Node Depth Summary
  ******************
  
  ---------------------------------------------------------------------------------
                                 Average  Maximum  Maximum  Time of Max    Reported
                                   Depth    Depth      HGL   Occurrence   Max Depth
  Node                 Type       Meters   Meters   Meters  days hr:min      Meters
  ---------------------------------------------------------------------------------
  WS02003060           JUNCTION     0.25     0.38     5.32     0  02:27        0.38
  WS02003066           JUNCTION     0.21     0.30     5.85     0  02:27        0.30
  WS02003067           JUNCTION     0.52     0.70     6.02     0  02:26        0.70
  WS02003069           JUNCTION     0.28     0.43     5.01     0  02:28        0.43
  WS02003072           JUNCTION     0.34     0.50     4.87     0  02:28        0.50
  WS02003073           JUNCTION     0.19     0.30     4.36     0  02:29        0.30
  WS02004401           JUNCTION     0.61     0.85     6.85     0  02:24        0.85
  WS02004402           JUNCTION     0.64     0.88     6.84     0  02:25        0.88
  WS02004403           JUNCTION     0.66     0.89     6.82     0  02:25        0.89
  WS02004404           JUNCTION     0.74     0.96     6.81     0  02:25        0.96
  WS02004405           JUNCTION     0.74     0.96     6.81     0  02:25        0.96
  WS02004406           JUNCTION     0.75     0.96     6.79     0  02:27        0.96
  WS02004407           JUNCTION     0.19     0.30     6.61     0  02:25        0.30
  WS02004409           JUNCTION     0.42     0.67     6.44     0  02:25        0.67
  WS02004410           JUNCTION     0.44     0.68     6.40     0  02:26        0.68
  WS02004411           JUNCTION     0.46     0.69     6.37     0  02:26        0.69
  WS02004412           JUNCTION     0.48     0.70     6.34     0  02:26        0.70
  WS02004413           JUNCTION     0.64     0.86     6.33     0  02:26        0.86
  WS02006109           JUNCTION     0.67     1.14     7.75     0  03:16        1.09
  WS02006110           JUNCTION     0.67     1.15     7.73     0  02:31        1.04
  WS02006111           JUNCTION     0.19     0.29     6.99     0  02:22        0.29
  WS02006112           JUNCTION     0.76     1.08     6.97     0  03:11        1.05
  WS02006113           JUNCTION     0.28     0.46     7.35     0  02:03        0.46
  WS02006115           JUNCTION     0.49     0.75     6.89     0  02:30        0.75
  WS02006116           JUNCTION     0.58     0.83     6.87     0  02:24        0.83
  WS02006228           JUNCTION     0.66     1.16     7.81     0  03:16        1.13
  WS02006229           JUNCTION     0.63     1.14     7.83     0  02:40        1.13
  WS02006230           JUNCTION     0.62     1.30     8.04     0  02:40        1.16
  WS02006231           JUNCTION     0.43     1.19     8.31     0  02:30        0.92
  WS02006232           JUNCTION     0.57     1.28     8.32     0  02:30        1.15
  WS02006234           JUNCTION     0.49     1.27     8.42     0  02:30        1.16
  WS02006235           JUNCTION     0.52     1.47     8.63     0  02:30        1.25
  WS02006238           JUNCTION     0.55     1.51     8.65     0  02:30        1.28
  WS02006239           JUNCTION     0.52     1.49     8.70     0  02:30        1.26
  WS02006240           JUNCTION     0.49     1.45     8.74     0  02:30        1.33
  WS02006242           JUNCTION     0.56     1.48     8.75     0  02:30        1.30
  WS02006243           JUNCTION     0.46     1.35     8.77     0  02:06        1.26
  WS02006245           JUNCTION     0.46     1.31     8.80     0  02:06        1.18
  WS02006247           JUNCTION     0.48     1.25     8.75     0  02:06        1.20
  WS02006248           JUNCTION     0.44     1.10     8.69     0  02:06        1.10
  WS02006249           JUNCTION     0.47     1.09     8.69     0  02:01        1.09
  WS02006251           JUNCTION     0.47     1.52     9.19     0  02:06        1.13
  WS02006252           JUNCTION     0.36     1.50     9.74     0  00:00        0.68
  WS02006256           JUNCTION     0.97     2.35     9.28     0  00:00        2.35
  WSF200               JUNCTION     0.18     0.29     5.52     0  02:30        0.29
  YS02001580           JUNCTION     0.07     1.05     9.59     0  01:59        0.77
  YS02001583           JUNCTION     0.11     1.14     9.64     0  01:59        0.82
  YS02001586           JUNCTION     0.17     1.13     9.30     0  01:59        1.13
  YS02001590           JUNCTION     0.26     1.40     9.26     0  01:59        1.38
  YS02001593           JUNCTION     0.19     1.39     9.25     0  02:23        1.39
  YS02001596           JUNCTION     0.26     1.77     9.19     0  02:23        1.77
  YS02001600           JUNCTION     0.31     1.87     9.00     0  01:59        1.86
  YS02001601           JUNCTION     0.50     2.06     8.90     0  01:58        2.06
  YS02001602           JUNCTION     0.41     1.87     8.77     0  01:58        1.87
  YS02001605           JUNCTION     0.38     1.78     8.68     0  02:06        1.78
  YS02001607           JUNCTION     0.39     1.68     8.53     0  02:23        1.68
  YS02001610           JUNCTION     0.44     1.68     8.48     0  02:02        1.68
  YS02001613           JUNCTION     0.39     1.69     8.53     0  02:12        1.69
  YS02001616           JUNCTION     0.32     1.61     8.52     0  02:06        1.61
  YS02001619           JUNCTION     0.30     1.61     8.54     0  02:06        1.61
  YS02001622           JUNCTION     0.29     1.59     8.50     0  02:23        1.58
  YS02001625           JUNCTION     0.57     1.78     8.38     0  02:02        1.78
  YS02001629           JUNCTION     0.40     1.85     8.40     0  02:05        1.85
  YS02001633           JUNCTION     0.48     2.08     8.53     0  02:06        2.08
  YS02001641           JUNCTION     0.47     2.10     8.54     0  02:06        2.10
  YS02001644           JUNCTION     0.47     1.92     8.35     0  02:05        1.92
  YS02001647           JUNCTION     0.26     1.90     8.51     0  02:06        1.90
  YS02001649           JUNCTION     0.30     2.05     8.44     0  02:06        2.05
  YS02001652           JUNCTION     0.20     1.96     8.55     0  02:06        1.96
  YS02001655           JUNCTION     0.16     1.74     8.59     0  02:10        1.74
  YS02001658           JUNCTION     0.11     1.52     8.66     0  02:10        1.52
  YS02001661           JUNCTION     0.15     1.30     8.70     0  02:12        1.29
  YS02001664           JUNCTION     0.05     0.80     8.73     0  02:12        0.79
  YS02001745           JUNCTION     0.06     0.94     8.46     0  02:12        0.93
  YS02001748           JUNCTION     0.11     1.42     8.49     0  02:07        1.36
  YS02001751           JUNCTION     0.13     1.89     8.77     0  02:06        1.52
  YS02001754           JUNCTION     0.17     2.20     8.81     0  02:06        2.20
  YS02001757           JUNCTION     0.32     2.21     8.47     0  02:06        2.21
  YS02001759           JUNCTION     0.26     2.21     8.57     0  02:06        2.21
  YS02001762           JUNCTION     0.25     2.15     8.55     0  02:06        2.15
  YS02001765           JUNCTION     0.24     2.10     8.55     0  02:06        2.10
  YS02001767           JUNCTION     0.23     2.03     8.52     0  02:06        2.03
  YS02001770           JUNCTION     0.25     1.95     8.44     0  02:05        1.95
  YS02001774           JUNCTION     0.31     2.05     8.47     0  02:06        2.05
  YS02001779           JUNCTION     0.16     1.68     8.37     0  02:04        1.68
  YS02001783           JUNCTION     0.21     1.29     7.43     0  02:04        1.29
  YS02001784           JUNCTION     0.22     1.19     7.25     0  02:23        1.19
  YS02001786           JUNCTION     0.19     0.91     6.94     0  02:04        0.89
  YS02001788           JUNCTION     0.13     0.63     6.60     0  02:11        0.62
  YS02001790           JUNCTION     0.16     0.73     6.37     0  02:12        0.72
  YS02001791           JUNCTION     0.10     0.44     5.91     0  02:12        0.43
  YS02001793           JUNCTION     0.05     0.29     5.13     0  02:23        0.28
  YS02001882           JUNCTION     0.27     1.81     8.53     0  02:12        1.81
  YS02001884           JUNCTION     0.37     1.88     8.50     0  02:12        1.88
  YS02001887           JUNCTION     0.44     2.00     8.53     0  02:12        2.00
  YS02001890           JUNCTION     0.47     1.81     8.32     0  02:03        1.81
  YS02001895           JUNCTION     0.24     1.58     8.33     0  02:06        1.58
  YS02001898           JUNCTION     0.25     1.58     8.32     0  02:23        1.57
  YS02001901           JUNCTION     0.37     1.69     8.30     0  02:23        1.68
  YS02001904           JUNCTION     0.35     1.65     8.28     0  02:23        1.64
  YS02001907           JUNCTION     0.68     1.96     8.25     0  02:03        1.96
  YS02001910           JUNCTION     0.47     2.01     8.52     0  02:13        2.01
  YS02001915           JUNCTION     0.28     2.00     8.72     0  02:12        2.00
  YS02001918           JUNCTION     0.15     1.81     8.88     0  02:04        1.71
  YS02001920           JUNCTION     0.22     2.05     9.05     0  02:04        1.79
  YS02001923           JUNCTION     0.11     1.92     9.18     0  02:04        1.56
  YS02001926           JUNCTION     0.15     1.82     9.26     0  02:04        1.40
  YS02001929           JUNCTION     0.08     1.71     9.41     0  02:04        1.18
  YS02006553           JUNCTION     0.68     2.05     8.33     0  02:12        2.05
  YS02006556           JUNCTION     0.65     2.09     8.40     0  02:12        2.09
  YS02006558           JUNCTION     0.69     2.20     8.46     0  02:12        2.20
  YS02006561           JUNCTION     0.13     0.96     7.62     0  02:04        0.96
  YS02163301           JUNCTION     0.42     1.98     8.49     0  02:06        1.98
  YS02163601           JUNCTION     0.52     2.08     8.48     0  02:05        2.08
  YS02164001           JUNCTION     0.46     2.10     8.56     0  02:06        2.10
  CC-1                 OUTFALL      0.00     0.00     0.00     0  00:00        0.00
  CC-2                 OUTFALL      0.00     0.00     0.00     0  00:00        0.00
  JK-1                 OUTFALL      0.00     0.00     0.00     0  00:00        0.00
  JK-2                 OUTFALL      0.00     0.00     0.00     0  00:00        0.00
  WSC                  OUTFALL      0.19     0.30     0.97     0  02:29        0.30
  CC-storage           STORAGE      0.84     1.72     7.22     0  02:41        1.72
  JK-storage           STORAGE      2.80     4.24     5.04     0  02:30        4.20
  
  
  *******************
  Node Inflow Summary
  *******************
  
  -------------------------------------------------------------------------------------------------
                                  Maximum  Maximum                  Lateral       Total        Flow
                                  Lateral    Total  Time of Max      Inflow      Inflow     Balance
                                   Inflow   Inflow   Occurrence      Volume      Volume       Error
  Node                 Type           LPS      LPS  days hr:min    10^6 ltr    10^6 ltr     Percent
  -------------------------------------------------------------------------------------------------
  WS02003060           JUNCTION     16.53   553.04     0  02:27       0.476        6.26       0.032
  WS02003066           JUNCTION      0.00   536.42     0  02:27           0        5.78       0.021
  WS02003067           JUNCTION      0.00   536.40     0  02:26           0        5.79       0.070
  WS02003069           JUNCTION      0.32   553.27     0  02:28     0.00922        6.26       0.055
  WS02003072           JUNCTION      0.00   553.19     0  02:28           0        6.26       0.099
  WS02003073           JUNCTION      1.82   554.98     0  02:28      0.0524        6.31       0.080
  WS02004401           JUNCTION      0.00   538.00     0  02:27           0        5.88       0.168
  WS02004402           JUNCTION      0.00   537.82     0  02:27           0        5.87       0.171
  WS02004403           JUNCTION      0.00   537.42     0  02:27           0        5.86       0.168
  WS02004404           JUNCTION      0.16   537.21     0  02:27     0.00467        5.86       0.140
  WS02004405           JUNCTION      0.04   537.48     0  02:27      0.0011        5.85       0.210
  WS02004406           JUNCTION      0.00   537.65     0  02:27           0        5.84       0.348
  WS02004407           JUNCTION      0.00   536.72     0  02:28           0        5.82       0.016
  WS02004409           JUNCTION      0.00   536.59     0  02:25           0        5.82       0.039
  WS02004410           JUNCTION      0.00   536.50     0  02:26           0        5.82       0.067
  WS02004411           JUNCTION      0.00   536.45     0  02:25           0        5.81       0.088
  WS02004412           JUNCTION      0.00   536.44     0  02:26           0        5.81       0.120
  WS02004413           JUNCTION      0.00   536.47     0  02:26           0         5.8       0.216
  WS02006109           JUNCTION      1.23   554.30     0  02:31      0.0354        5.93       0.169
  WS02006110           JUNCTION      0.00   554.76     0  02:31           0        5.92       0.108
  WS02006111           JUNCTION      0.00   560.45     0  02:42           0        5.91       0.009
  WS02006112           JUNCTION      0.00   542.20     0  02:30           0        5.91       0.299
  WS02006113           JUNCTION      0.00   565.67     0  02:41           0        5.91       0.029
  WS02006115           JUNCTION      0.00   548.60     0  02:30           0         5.9       0.105
  WS02006116           JUNCTION      0.00   538.00     0  02:30           0        5.89       0.093
  WS02006228           JUNCTION      0.00   553.68     0  02:31           0         5.9       0.053
  WS02006229           JUNCTION      0.00   553.93     0  02:31           0         5.9       0.067
  WS02006230           JUNCTION     10.28   590.57     0  02:30       0.296        5.91       0.046
  WS02006231           JUNCTION      0.00   578.13     0  02:55           0        5.61       0.013
  WS02006232           JUNCTION      0.00   577.22     0  02:55           0        5.62       0.121
  WS02006234           JUNCTION      0.00   572.01     0  02:55           0        5.61      -0.098
  WS02006235           JUNCTION      0.00   562.74     0  03:10           0        5.65       0.107
  WS02006238           JUNCTION      0.00   425.13     0  03:00           0        4.75      -0.132
  WS02006239           JUNCTION      0.00   424.48     0  03:00           0        4.72      -0.165
  WS02006240           JUNCTION      0.00   420.78     0  03:00           0         4.7      -0.041
  WS02006242           JUNCTION      0.00   420.17     0  03:00           0        4.69       0.001
  WS02006243           JUNCTION      0.00   419.92     0  03:00           0        4.68      -0.046
  WS02006245           JUNCTION      0.00   420.68     0  03:00           0        4.69       0.209
  WS02006247           JUNCTION      0.00   420.22     0  03:00           0        4.69       0.017
  WS02006248           JUNCTION      0.00   420.85     0  03:00           0         4.7       0.025
  WS02006249           JUNCTION      0.00   459.02     0  00:00           0        4.92       0.166
  WS02006251           JUNCTION      0.08   411.85     0  02:06     0.00222        4.92      -0.002
  WS02006252           JUNCTION      0.00   400.00     0  00:00           0        4.91      -0.054
  WS02006256           JUNCTION      0.00   300.00     0  00:00           0        1.32      -0.547
  WSF200               JUNCTION      0.00   536.43     0  02:27           0        5.78       0.006
  YS02001580           JUNCTION      0.00    74.95     0  01:59           0      0.0041       0.489
  YS02001583           JUNCTION      0.00   129.83     0  01:58           0      0.0154      -3.986
  YS02001586           JUNCTION   1038.85  1038.85     0  02:15        2.16        2.17       0.046
  YS02001590           JUNCTION      0.00   317.99     0  02:38           0        1.48      -0.033
  YS02001593           JUNCTION      0.00   317.98     0  02:10           0        1.49      -0.001
  YS02001596           JUNCTION      0.00   318.22     0  02:32           0        1.49      -0.018
  YS02001600           JUNCTION      0.00   317.98     0  02:20           0        1.49       0.013
  YS02001601           JUNCTION   1826.33  2143.73     0  02:14        2.95        4.43       0.019
  YS02001602           JUNCTION      0.00   500.63     0  01:58           0        2.45       0.018
  YS02001605           JUNCTION      0.00   499.90     0  01:58           0        2.31       0.023
  YS02001607           JUNCTION      0.00   498.70     0  01:58           0        2.31       0.080
  YS02001610           JUNCTION      0.00   952.02     0  02:17           0         2.8       0.078
  YS02001613           JUNCTION      0.00   615.98     0  02:17           0         2.2       0.067
  YS02001616           JUNCTION      0.00   615.97     0  02:17           0         2.2       0.021
  YS02001619           JUNCTION   1846.91  1846.91     0  02:14        3.47        5.18      -0.002
  YS02001622           JUNCTION      0.00  1053.56     0  02:14           0        4.65      -0.003
  YS02001625           JUNCTION      0.00  1504.14     0  02:17           0           5       0.182
  YS02001629           JUNCTION      0.00   924.81     0  02:02           0        3.75       0.013
  YS02001633           JUNCTION   1374.16  1374.16     0  02:14        2.16        5.46       0.064
  YS02001641           JUNCTION      0.00  1340.31     0  02:02           0           5       0.057
  YS02001644           JUNCTION   1225.04  2016.59     0  02:13        1.87        6.89       0.046
  YS02001647           JUNCTION      0.00  1722.16     0  02:03           0         5.9       0.006
  YS02001649           JUNCTION      0.00  1967.90     0  02:03           0        7.61       0.002
  YS02001652           JUNCTION      0.00  1219.71     0  02:13           0        1.73      -0.068
  YS02001655           JUNCTION      0.15  1219.70     0  02:13     0.00443        1.73      -0.035
  YS02001658           JUNCTION      0.00  1218.63     0  02:13           0        1.72      -0.006
  YS02001661           JUNCTION      0.00  1218.10     0  02:13           0        1.72      -0.010
  YS02001664           JUNCTION   1203.95  1203.95     0  02:13        1.72        1.72      -0.004
  YS02001745           JUNCTION    759.22   759.22     0  02:13        1.03        1.03       0.130
  YS02001748           JUNCTION      0.04   769.67     0  02:13      0.0013        1.03      -0.189
  YS02001751           JUNCTION      0.01   770.46     0  02:13    0.000317        1.04       0.056
  YS02001754           JUNCTION      0.26   770.65     0  02:13     0.00749        1.05      -0.116
  YS02001757           JUNCTION      0.00  3326.69     0  02:11           0        11.8       0.025
  YS02001759           JUNCTION   1056.58  1421.47     0  02:13        1.43        3.14      -0.012
  YS02001762           JUNCTION      0.00   752.04     0  02:07           0        1.71      -0.009
  YS02001765           JUNCTION      0.00   751.53     0  02:07           0        1.71      -0.006
  YS02001767           JUNCTION      0.54   752.14     0  02:07      0.0154        1.71      -0.007
  YS02001770           JUNCTION   1481.14  1481.14     0  02:13        2.17        2.22      -0.012
  YS02001774           JUNCTION      0.00   850.59     0  02:15           0       0.503       0.175
  YS02001779           JUNCTION      0.01   850.60     0  02:15    0.000144       0.459      -0.065
  YS02001783           JUNCTION      0.00  1174.51     0  02:12           0        4.48       0.004
  YS02001784           JUNCTION      1.06  1174.87     0  02:12      0.0305        4.52       0.012
  YS02001786           JUNCTION      0.06  1175.23     0  02:12     0.00162        4.52       0.015
  YS02001788           JUNCTION      0.07  1175.65     0  02:12     0.00204        4.52       0.007
  YS02001790           JUNCTION      0.15  1183.64     0  02:11     0.00446        4.52       0.022
  YS02001791           JUNCTION      0.00  1291.13     0  02:12           0        4.52      -0.027
  YS02001793           JUNCTION      0.00  1268.03     0  02:13           0        4.52       0.005
  YS02001882           JUNCTION      0.00    33.00     0  02:01           0       0.013       5.899
  YS02001884           JUNCTION      0.00    50.44     0  02:00           0       0.049       5.386
  YS02001887           JUNCTION   1134.46  1134.84     0  02:13        1.49        1.52       0.294
  YS02001890           JUNCTION      0.00  1134.84     0  02:13           0        1.48       0.349
  YS02001895           JUNCTION      0.00   517.29     0  02:11           0        1.24       0.145
  YS02001898           JUNCTION      0.00   517.48     0  02:19           0        1.24       0.018
  YS02001901           JUNCTION      0.00   517.43     0  02:19           0        1.24       0.274
  YS02001904           JUNCTION      0.00   517.09     0  02:11           0        1.24       0.224
  YS02001907           JUNCTION      0.00  2834.51     0  02:14           0        4.56       0.401
  YS02001910           JUNCTION      0.00  1975.54     0  02:14           0        3.24       0.221
  YS02001915           JUNCTION   1323.02  1974.69     0  02:14        2.07        3.27       0.050
  YS02001918           JUNCTION      0.00   652.47     0  02:14           0        1.22       0.009
  YS02001920           JUNCTION      2.87   651.98     0  02:14      0.0827        1.21       0.077
  YS02001923           JUNCTION      0.04   648.31     0  02:14     0.00109        1.11      -0.022
  YS02001926           JUNCTION      0.05   647.75     0  02:14      0.0015         1.1       0.004
  YS02001929           JUNCTION    646.61   646.61     0  02:14        1.09        1.09      -0.055
  YS02006553           JUNCTION      0.00   801.76     0  02:32           0        2.52       0.476
  YS02006556           JUNCTION      0.00   802.25     0  02:31           0        2.52       0.328
  YS02006558           JUNCTION   1524.67  1524.67     0  02:13        2.18         4.6       0.079
  YS02006561           JUNCTION      0.00  1172.72     0  02:12           0        4.48      -0.002
  YS02163301           JUNCTION      0.00   925.95     0  02:02           0        3.75       0.038
  YS02163601           JUNCTION      0.11  1341.04     0  02:02     0.00317           5       0.098
  YS02164001           JUNCTION      0.00  1340.85     0  02:02           0           5       0.043
  CC-1                 OUTFALL       0.00   683.00     0  00:00           0        3.84       0.000
  CC-2                 OUTFALL       0.00   683.00     0  00:00           0        3.86       0.000
  JK-1                 OUTFALL       0.00  1000.00     0  00:00           0        1.71       0.000
  JK-2                 OUTFALL       0.00  1000.00     0  00:00           0        1.56       0.000
  WSC                  OUTFALL       0.00   554.95     0  02:29           0         6.3       0.000
  CC-storage           STORAGE       0.00  3328.90     0  02:12           0          14      -0.206
  JK-storage           STORAGE       0.00  1276.76     0  02:07           0        4.67      -0.220
  
  
  **********************
  Node Surcharge Summary
  **********************
  
  Surcharging occurs when water rises above the top of the highest conduit.
  ---------------------------------------------------------------------
                                               Max. Height   Min. Depth
                                   Hours       Above Crown    Below Rim
  Node                 Type      Surcharged         Meters       Meters
  ---------------------------------------------------------------------
  WS02006109           JUNCTION        2.01          0.316        1.504
  WS02006110           JUNCTION        0.74          0.237        1.613
  WS02006112           JUNCTION        0.77          0.085        1.595
  WS02006228           JUNCTION        2.01          0.331        1.869
  WS02006229           JUNCTION        2.01          0.336        2.114
  WS02006230           JUNCTION        0.74          0.218        1.352
  WS02006231           JUNCTION        0.86          0.480        1.050
  WS02006232           JUNCTION        2.04          0.580        0.900
  WS02006234           JUNCTION        1.09          0.548        0.692
  WS02006235           JUNCTION        1.99          0.758        0.532
  WS02006238           JUNCTION        2.01          0.791        0.639
  WS02006239           JUNCTION        2.00          0.754        0.536
  WS02006240           JUNCTION        2.01          0.738        0.652
  WS02006242           JUNCTION        2.02          0.751        0.069
  WS02006243           JUNCTION        2.00          0.641        0.129
  WS02006245           JUNCTION        1.99          0.601        0.249
  WS02006247           JUNCTION        1.99          0.536        0.224
  WS02006248           JUNCTION        1.98          0.380        0.000
  WS02006249           JUNCTION        1.98          0.390        0.000
  WS02006251           JUNCTION        0.89          0.492        0.688
  WS02006252           JUNCTION        2.33          1.100        0.000
  WS02006256           JUNCTION        5.80          2.050        0.000
  YS02001580           JUNCTION        0.76          0.450        0.000
  YS02001583           JUNCTION        0.77          0.500        0.000
  YS02001586           JUNCTION        0.89          0.510        0.000
  YS02001590           JUNCTION        0.97          0.750        0.000
  YS02001593           JUNCTION        0.97          0.772        0.068
  YS02001596           JUNCTION        1.09          1.044        0.026
  YS02001600           JUNCTION        1.25          1.190        0.000
  YS02001601           JUNCTION        1.55          1.440        0.000
  YS02001602           JUNCTION        1.45          1.270        0.000
  YS02001605           JUNCTION        1.40          1.180        0.000
  YS02001607           JUNCTION        0.95          0.680        0.000
  YS02001610           JUNCTION        0.98          0.680        0.000
  YS02001613           JUNCTION        0.95          0.688        0.012
  YS02001616           JUNCTION        0.90          0.610        0.000
  YS02001619           JUNCTION        0.89          0.610        0.000
  YS02001622           JUNCTION        0.89          0.593        0.027
  YS02001625           JUNCTION        1.08          0.780        0.000
  YS02001629           JUNCTION        0.83          0.470        0.000
  YS02001633           JUNCTION        1.11          1.060        0.000
  YS02001641           JUNCTION        1.05          1.100        0.000
  YS02001644           JUNCTION        1.01          0.920        0.000
  YS02001647           JUNCTION        0.78          0.900        0.000
  YS02001649           JUNCTION        0.91          1.050        0.000
  YS02001652           JUNCTION        0.70          0.927        0.203
  YS02001655           JUNCTION        0.53          0.739        0.461
  YS02001658           JUNCTION        0.31          0.521        0.779
  YS02001661           JUNCTION        0.12          0.228        1.162
  YS02001748           JUNCTION        0.25          0.335        0.855
  YS02001751           JUNCTION        0.40          0.890        0.310
  YS02001754           JUNCTION        0.60          1.150        0.000
  YS02001757           JUNCTION        0.98          1.210        0.000
  YS02001759           JUNCTION        0.88          1.210        0.000
  YS02001762           JUNCTION        0.84          1.150        0.000
  YS02001765           JUNCTION        0.79          1.100        0.000
  YS02001767           JUNCTION        0.76          1.030        0.000
  YS02001770           JUNCTION        0.73          0.920        0.000
  YS02001774           JUNCTION        0.82          1.050        0.000
  YS02001779           JUNCTION        0.59          0.680        0.000
  YS02001783           JUNCTION        0.65          0.486        1.114
  YS02001784           JUNCTION        0.62          0.387        1.103
  YS02001786           JUNCTION        0.50          0.108        1.322
  YS02001882           JUNCTION        0.59          0.814        0.016
  YS02001884           JUNCTION        0.60          0.822        0.048
  YS02001887           JUNCTION        0.64          0.946        0.004
  YS02001890           JUNCTION        0.65          0.760        0.000
  YS02001895           JUNCTION        0.58          0.582        0.168
  YS02001898           JUNCTION        0.57          0.552        0.188
  YS02001901           JUNCTION        0.62          0.689        0.181
  YS02001904           JUNCTION        0.61          0.645        0.205
  YS02001907           JUNCTION        0.89          0.950        0.000
  YS02001910           JUNCTION        0.68          1.010        0.090
  YS02001915           JUNCTION        0.59          1.000        0.000
  YS02001918           JUNCTION        0.49          0.810        0.000
  YS02001920           JUNCTION        0.51          1.047        0.093
  YS02001923           JUNCTION        0.20          0.707        0.113
  YS02001926           JUNCTION        0.24          0.816        0.084
  YS02001929           JUNCTION        0.09          0.712        0.068
  YS02006553           JUNCTION        0.92          1.051        0.139
  YS02006556           JUNCTION        0.78          1.048        0.302
  YS02006558           JUNCTION        0.77          1.095        0.305
  YS02006561           JUNCTION        0.46          0.159        0.991
  YS02163301           JUNCTION        1.09          0.977        0.053
  YS02163601           JUNCTION        1.14          1.080        0.000
  YS02164001           JUNCTION        1.05          1.100        0.000
  
  
  *********************
  Node Flooding Summary
  *********************
  
  Flooding refers to all water that overflows a node, whether it ponds or not.
  --------------------------------------------------------------------------
                                                             Total   Maximum
                                 Maximum   Time of Max       Flood    Ponded
                        Hours       Rate    Occurrence      Volume     Depth
  Node                 Flooded       LPS   days hr:min    10^6 ltr    Meters
  --------------------------------------------------------------------------
  WS02006248              0.01     27.13      0  02:06       0.000     0.000
  WS02006249              0.87    130.65      0  02:06       0.213     0.000
  WS02006252              0.01    245.63      0  00:00       0.000     0.000
  WS02006256              1.23    293.19      0  00:00       0.413     0.000
  YS02001580              0.01     38.19      0  01:59       0.000     0.000
  YS02001583              0.01     62.48      0  01:59       0.000     0.000
  YS02001586              0.62    721.24      0  02:15       0.676     0.000
  YS02001590              0.01      5.63      0  01:59       0.000     0.000
  YS02001600              0.01      3.58      0  02:23       0.000     0.000
  YS02001601              0.81   1745.66      0  02:14       1.980     0.000
  YS02001602              0.68     62.02      0  02:35       0.140     0.000
  YS02001605              0.01      0.02      0  02:06       0.000     0.000
  YS02001607              0.01      0.14      0  02:23       0.000     0.000
  YS02001610              0.61    952.02      0  02:17       1.083     0.000
  YS02001616              0.02     23.85      0  02:23       0.000     0.000
  YS02001619              0.11    192.93      0  02:14       0.044     0.000
  YS02001625              0.57   1504.13      0  02:17       1.694     0.000
  YS02001629              0.22    266.31      0  02:14       0.103     0.000
  YS02001633              0.01      1.78      0  02:12       0.000     0.000
  YS02001641              0.01      1.14      0  02:06       0.000     0.000
  YS02001644              0.29   2016.36      0  02:13       0.987     0.000
  YS02001647              0.01      8.08      0  02:06       0.000     0.000
  YS02001649              0.01      4.99      0  02:06       0.000     0.000
  YS02001754              0.01      3.40      0  02:06       0.000     0.000
  YS02001757              0.01     13.91      0  02:06       0.000     0.000
  YS02001759              0.01      3.67      0  02:06       0.000     0.000
  YS02001762              0.01      9.08      0  02:06       0.000     0.000
  YS02001765              0.01      7.54      0  02:06       0.000     0.000
  YS02001767              0.01      2.69      0  02:06       0.000     0.000
  YS02001770              0.08    286.83      0  02:13       0.044     0.000
  YS02001774              0.01      1.31      0  02:06       0.000     0.000
  YS02001779              0.25    850.58      0  02:15       0.440     0.000
  YS02001890              0.27    618.32      0  02:13       0.236     0.000
  YS02001907              0.44   2834.28      0  02:14       2.118     0.000
  YS02001915              0.01      0.95      0  02:13       0.000     0.000
  YS02001918              0.01     63.90      0  02:04       0.000     0.000
  YS02163601              0.01      3.96      0  02:05       0.000     0.000
  YS02164001              0.01      1.29      0  02:06       0.000     0.000
  
  
  **********************
  Storage Volume Summary
  **********************
  
  ------------------------------------------------------------------------------------------------
                         Average    Avg   Evap  Exfil     Maximum    Max    Time of Max    Maximum
                          Volume   Pcnt   Pcnt   Pcnt      Volume   Pcnt     Occurrence    Outflow
  Storage Unit           1000 m³   Full   Loss   Loss     1000 m³   Full    days hr:min        LPS
  ------------------------------------------------------------------------------------------------
  CC-storage               2.335   36.4    0.0    0.0       4.802   74.9       0  02:41    1783.53
  JK-storage               0.140   48.2    0.0    0.0       0.213   73.0       0  02:30    2300.00
  
  
  ***********************
  Outfall Loading Summary
  ***********************
  
  -----------------------------------------------------------
                         Flow       Avg       Max       Total
                         Freq      Flow      Flow      Volume
  Outfall Node           Pcnt       LPS       LPS    10^6 ltr
  -----------------------------------------------------------
  CC-1                  16.38    683.00    683.00       3.837
  CC-2                  17.15    683.00    683.00       3.862
  JK-1                   4.99   1000.00   1000.00       1.709
  JK-2                   5.47   1000.00   1000.00       1.561
  WSC                   99.97    268.12    554.95       6.302
  -----------------------------------------------------------
  System                28.79   3634.12   3883.85      17.272
  
  
  ********************
  Link Flow Summary
  ********************
  
  -----------------------------------------------------------------------------
                                 Maximum  Time of Max   Maximum    Max/    Max/
                                  |Flow|   Occurrence   |Veloc|    Full    Full
  Link                 Type          LPS  days hr:min     m/sec    Flow   Depth
  -----------------------------------------------------------------------------
  1                    CONDUIT    554.95     0  02:29      2.83    0.19    0.30
  WS02003060WS02003069 CONDUIT    552.95     0  02:28      1.64    0.22    0.34
  WS02003066WSF200     CONDUIT    536.43     0  02:27      2.85    0.09    0.22
  WS02003067WS02003066 CONDUIT    536.42     0  02:27      1.21    0.17    0.42
  WS02003069WS02003072 CONDUIT    553.19     0  02:28      1.37    0.27    0.39
  WS02003072WS02003073 CONDUIT    553.16     0  02:28      1.44    1.19    0.37
  WS02004401WS02004402 CONDUIT    537.82     0  02:27      0.98    0.65    0.86
  WS02004402WS02004403 CONDUIT    537.42     0  02:27      0.97    0.77    0.88
  WS02004403WS02004404 CONDUIT    537.04     0  02:27      0.92    0.39    0.93
  WS02004404WS02004405 CONDUIT    537.44     0  02:27      1.08    5.27    0.96
  WS02004405WS02004406 CONDUIT    537.65     0  02:27      0.99    1.06    0.96
  WS02004406WS02004407 CONDUIT    536.72     0  02:28      1.04    0.24    0.63
  WS02004407WS02004409 CONDUIT    536.59     0  02:25      1.49    0.19    0.48
  WS02004409WS02004410 CONDUIT    536.50     0  02:26      0.98    0.69    0.67
  WS02004410WS02004411 CONDUIT    536.45     0  02:25      0.93    0.73    0.69
  WS02004411WS02004412 CONDUIT    536.44     0  02:26      0.92    0.76    0.69
  WS02004412WS02004413 CONDUIT    536.47     0  02:26      0.82    0.36    0.78
  WS02004413WS02003067 CONDUIT    536.40     0  02:26      1.11    0.23    0.59
  WS02006109WS02006110 CONDUIT    554.76     0  02:31      1.10    1.07    1.00
  WS02006110WS02006113 CONDUIT    565.67     0  02:41      1.37    0.51    0.78
  WS02006111WS02006112 CONDUIT    542.20     0  02:30      1.81    0.26    0.67
  WS02006112WS02006115 CONDUIT    548.60     0  02:30      0.79    0.32    0.87
  WS02006113WS02006111 CONDUIT    560.45     0  02:42      2.47    0.67    0.46
  WS02006115WS02006116 CONDUIT    538.00     0  02:30      0.97    0.69    0.76
  WS02006116WS02004401 CONDUIT    538.00     0  02:27      0.98    0.74    0.84
  WS02006228WS02006109 CONDUIT    553.07     0  02:31      1.10    2.42    1.00
  WS02006229WS02006228 CONDUIT    553.68     0  02:31      1.14    1.83    1.00
  WS02006230WS02006229 CONDUIT    553.93     0  02:31      1.44   12.33    1.00
  WS02006231WS02006230 CONDUIT    580.29     0  02:30      1.58    8.80    1.00
  WS02006232WS02006231 CONDUIT    578.13     0  02:55      1.51    1.21    1.00
  WS02006234WS02006232 CONDUIT    577.22     0  02:55      1.50    1.17    1.00
  WS02006235WS02006234 CONDUIT    572.01     0  02:55      1.49    6.04    1.00
  WS02006238WS02006235 CONDUIT    426.10     0  03:00      1.45    0.95    1.00
  WS02006239WS02006238 CONDUIT    425.13     0  03:00      1.10    1.36    1.00
  WS02006240WS02006239 CONDUIT    424.48     0  03:00      1.24    1.34    1.00
  WS02006242WS02006240 CONDUIT    420.78     0  03:00      1.13    1.67    1.00
  WS02006243WS02006242 CONDUIT    420.17     0  03:00      1.40    0.90    1.00
  WS02006245WS02006243 CONDUIT    419.92     0  03:00      1.45    1.24    1.00
  WS02006247WS02006245 CONDUIT    420.68     0  03:00      1.43    3.34    1.00
  WS02006248WS02006247 CONDUIT    420.22     0  03:00      1.44    0.91    1.00
  WS02006249WS02006248 CONDUIT    420.85     0  03:00      1.36    2.31    1.00
  WS02006251WS02006249 CONDUIT    459.02     0  00:00      1.99    1.32    1.00
  WS02006252WS02006251 CONDUIT    411.78     0  02:06     24.61    1.51    1.00
  WS02006256WS02006235 CONDUIT    288.91     0  00:00      4.23    3.06    1.00
  WSF200WS02003060     CONDUIT    536.51     0  02:27      2.06    0.12    0.28
  YS02001580YS02001583 CONDUIT     74.95     0  01:59      0.55    0.29    1.00
  YS02001583YS02001586 CONDUIT    129.83     0  01:58      0.54    0.20    1.00
  YS02001586YS02001590 CONDUIT    317.99     0  02:38      1.25    0.56    1.00
  YS02001590YS02001593 CONDUIT    317.98     0  02:10      1.12    2.00    1.00
  YS02001593YS02001596 CONDUIT    318.22     0  02:32      1.75    0.50    1.00
  YS02001596YS02001600 CONDUIT    317.98     0  02:20      1.27    0.62    1.00
  YS02001600YS02001601 CONDUIT    317.97     0  02:06      1.12    0.55    1.00
  YS02001601YS02001602 CONDUIT    500.63     0  01:58      1.77    1.81    1.00
  YS02001602YS02001605 CONDUIT    499.90     0  01:58      1.77   10.58    1.00
  YS02001605YS02001607 CONDUIT    498.70     0  01:58      1.76    2.73    1.00
  YS02001607YS02001610 CONDUIT    499.49     0  01:57      0.64    0.47    1.00
  YS02001610YS02001613 CONDUIT    615.98     0  02:17      0.78    0.71    1.00
  YS02001613YS02001616 CONDUIT    615.98     0  02:17      0.78    0.53    1.00
  YS02001616YS02001619 CONDUIT    615.97     0  02:17      0.78    1.07    1.00
  YS02001619YS02001622 CONDUIT   1053.56     0  02:14      1.34    1.55    1.00
  YS02001622YS02001625 CONDUIT   1053.32     0  02:14      1.34    0.56    1.00
  YS02001625YS02001629 CONDUIT    924.81     0  02:02      1.18    0.44    1.00
  YS02001629YS02163301 CONDUIT    925.95     0  02:02      1.18    1.14    1.00
  YS02001633YS02163601 CONDUIT   1340.93     0  02:02      1.71    1.41    1.00
  YS02001641YS02001644 CONDUIT   1340.99     0  02:02      1.71    4.34    1.00
  YS02001644YS02001647 CONDUIT   1722.16     0  02:03      2.21    1.01    1.00
  YS02001647YS02001649 CONDUIT   1737.60     0  02:03      2.30    0.92    1.00
  YS02001649YS02001757 CONDUIT   1966.69     0  02:05      2.50    1.19    1.00
  YS02001652YS02001649 CONDUIT   1220.20     0  02:13      1.55    0.60    1.00
  YS02001655YS02001652 CONDUIT   1219.71     0  02:13      1.55    0.59    1.00
  YS02001658YS02001655 CONDUIT   1219.55     0  02:13      1.83    0.52    1.00
  YS02001661YS02001658 CONDUIT   1218.63     0  02:13      2.24    0.48    1.00
  YS02001664YS02001661 CONDUIT   1218.10     0  02:13      2.22    0.38    0.90
  YS02001745YS02001748 CONDUIT    769.63     0  02:13      2.10    0.30    0.97
  YS02001748YS02001751 CONDUIT    770.45     0  02:13      1.64    0.39    1.00
  YS02001751YS02001754 CONDUIT    770.39     0  02:13      1.39    0.37    1.00
  YS02001754YS02001757 CONDUIT    771.77     0  02:13      0.98    0.31    1.00
  YS02001757CaochengTiaoxuchi CONDUIT   3328.90     0  02:12      4.24    1.44    1.00
  YS02001759YS02001757 CONDUIT   1420.35     0  02:13      1.81    1.01    1.00
  YS02001762YS02001759 CONDUIT    751.48     0  02:07      0.96    0.87    1.00
  YS02001765YS02001762 CONDUIT    752.04     0  02:07      0.96    0.71    1.00
  YS02001767YS02001765 CONDUIT    751.53     0  02:07      0.96    0.95    1.00
  YS02001770YS02001767 CONDUIT    751.60     0  02:07      0.96    2.98    1.00
  YS02001774YS02001770 CONDUIT    850.59     0  02:15      1.08    0.54    1.00
  YS02001779YS02001774 CONDUIT    850.59     0  02:15      1.08    0.43    1.00
  YS02001783YS02001784 CONDUIT   1173.81     0  02:12      2.34    1.62    1.00
  YS02001784YS02001785 CONDUIT   1175.17     0  02:12      2.34    2.73    1.00
  YS02001786YS02001788 CONDUIT   1175.58     0  02:12      2.50    2.27    0.89
  YS02001788YS02001790 CONDUIT   1183.49     0  02:11      2.74    0.87    0.84
  YS02001790YS02001791 CONDUIT   1291.13     0  02:12      3.42    1.40    0.71
  YS02001791YS02001793 CONDUIT   1268.03     0  02:13      6.81    0.54    0.44
  YS02001793JiankangQianchi CONDUIT   1276.76     0  02:07      2.54    0.10    0.65
  YS02001882YS02001884 CONDUIT     33.00     0  02:01      0.14    0.04    1.00
  YS02001884YS02001887 CONDUIT     50.44     0  02:00      0.10    0.07    1.00
  YS02001887YS02001890 CONDUIT   1134.84     0  02:13      1.44    1.94    1.00
  YS02001890YS02001895 CONDUIT    517.29     0  02:11      0.66    0.24    1.00
  YS02001895YS02001898 CONDUIT    517.48     0  02:19      0.66    0.90    1.00
  YS02001898YS02001901 CONDUIT    517.43     0  02:19      0.66    0.33    1.00
  YS02001901YS02001904 CONDUIT    517.09     0  02:11      0.66    0.80    1.00
  YS02001904YS02001907 CONDUIT    517.48     0  02:12      0.66    0.18    1.00
  YS02001907YS02006553 CONDUIT    801.76     0  02:32      0.89    0.94    1.00
  YS02001910YS02001907 CONDUIT   1975.07     0  02:14      2.51    1.11    1.00
  YS02001915YS02001910 CONDUIT   1975.54     0  02:14      2.52    0.98    1.00
  YS02001918YS02001915 CONDUIT    652.85     0  02:14      0.83    0.36    1.00
  YS02001920YS02001918 CONDUIT    652.47     0  02:14      0.83    0.63    1.00
  YS02001923YS02001920 CONDUIT    649.11     0  02:14      0.83    0.29    1.00
  YS02001926YS02001923 CONDUIT    648.27     0  02:14      0.94    0.93    1.00
  YS02001929YS02001926 CONDUIT    647.70     0  02:14      1.09    0.31    1.00
  YS02006553YS02006556 CONDUIT    802.25     0  02:31      1.02    0.69    1.00
  YS02006556YS02006558 CONDUIT    803.23     0  02:31      1.02    0.63    1.00
  YS02006558YS02006561 CONDUIT   1172.72     0  02:12      4.15    2.59    1.00
  YS02006561YS02001783 CONDUIT   1174.51     0  02:12      2.34    0.61    1.00
  YS02163301YS02001633 CONDUIT    926.26     0  02:02      1.18    0.87    1.00
  YS02163601YS02164001 CONDUIT   1340.85     0  02:02      1.71    1.19    1.00
  YS02164001YS02001641 CONDUIT   1340.31     0  02:02      1.71    1.83    1.00
  CC-R1                PUMP       683.00     0  00:00              1.00
  CC-R2                PUMP       683.00     0  00:00              1.00
  CC-S1                PUMP       200.00     0  00:00              1.00
  CC-S2                PUMP       200.00     0  00:00              1.00
  JK-R1                PUMP      1000.00     0  00:00              1.00
  JK-R2                PUMP      1000.00     0  00:00              1.00
  JK-S                 PUMP       300.00     0  00:00              1.00
  
  
  ***************************
  Flow Classification Summary
  ***************************
  
  -------------------------------------------------------------------------------------
                      Adjusted    ---------- Fraction of Time in Flow Class ---------- 
                       /Actual         Up    Down  Sub   Sup   Up    Down  Norm  Inlet 
  Conduit               Length    Dry  Dry   Dry   Crit  Crit  Crit  Crit  Ltd   Ctrl  
  -------------------------------------------------------------------------------------
  1                       1.00   0.00  0.00  0.00  0.00  1.00  0.00  0.00  0.48  0.00
  WS02003060WS02003069    1.00   0.00  0.00  0.00  0.97  0.03  0.00  0.00  0.64  0.00
  WS02003066WSF200        1.00   0.13  0.00  0.00  0.00  0.87  0.00  0.00  0.76  0.00
  WS02003067WS02003066    1.00   0.10  0.02  0.00  0.88  0.00  0.00  0.00  0.00  0.00
  WS02003069WS02003072    1.00   0.00  0.00  0.00  0.99  0.01  0.00  0.00  0.72  0.00
  WS02003072WS02003073    1.00   0.00  0.00  0.00  0.00  0.00  0.00  1.00  0.00  0.00
  WS02004401WS02004402    1.00   0.02  0.00  0.00  0.98  0.00  0.00  0.00  0.00  0.00
  WS02004402WS02004403    1.00   0.02  0.00  0.00  0.97  0.00  0.00  0.00  0.00  0.00
  WS02004403WS02004404    1.00   0.00  0.03  0.00  0.97  0.00  0.00  0.00  0.00  0.00
  WS02004404WS02004405    1.00   0.00  0.00  0.00  1.00  0.00  0.00  0.00  0.00  0.00
  WS02004405WS02004406    1.00   0.00  0.00  0.00  1.00  0.00  0.00  0.00  0.00  0.00
  WS02004406WS02004407    1.00   0.00  0.05  0.00  0.95  0.00  0.00  0.00  0.00  0.00
  WS02004407WS02004409    1.00   0.05  0.00  0.00  0.94  0.01  0.00  0.00  0.95  0.00
  WS02004409WS02004410    1.00   0.05  0.00  0.00  0.95  0.00  0.00  0.00  0.03  0.00
  WS02004410WS02004411    1.00   0.05  0.00  0.00  0.95  0.00  0.00  0.00  0.01  0.00
  WS02004411WS02004412    1.00   0.05  0.00  0.00  0.95  0.00  0.00  0.00  0.00  0.00
  WS02004412WS02004413    1.00   0.05  0.00  0.00  0.94  0.00  0.00  0.00  0.01  0.00
  WS02004413WS02003067    1.00   0.06  0.04  0.00  0.00  0.00  0.90  0.00  0.00  0.00
  WS02006109WS02006110    1.00   0.00  0.01  0.00  0.98  0.00  0.01  0.00  0.00  0.00
  WS02006110WS02006113    1.00   0.01  0.01  0.00  0.98  0.00  0.00  0.00  0.00  0.00
  WS02006111WS02006112    1.00   0.02  0.00  0.00  0.98  0.00  0.00  0.00  0.98  0.00
  WS02006112WS02006115    1.00   0.02  0.00  0.00  0.97  0.00  0.00  0.00  0.00  0.00
  WS02006113WS02006111    1.00   0.02  0.00  0.00  0.00  0.98  0.00  0.00  0.17  0.00
  WS02006115WS02006116    1.00   0.02  0.00  0.00  0.97  0.00  0.00  0.01  0.00  0.00
  WS02006116WS02004401    1.00   0.02  0.00  0.00  0.98  0.00  0.00  0.00  0.00  0.00
  WS02006228WS02006109    1.00   0.00  0.00  0.00  1.00  0.00  0.00  0.00  0.00  0.00
  WS02006229WS02006228    1.00   0.00  0.00  0.00  0.99  0.00  0.00  0.01  0.00  0.00
  WS02006230WS02006229    1.00   0.00  0.00  0.00  0.99  0.00  0.00  0.01  0.00  0.00
  WS02006231WS02006230    1.00   0.00  0.00  0.00  0.28  0.00  0.72  0.00  0.00  0.00
  WS02006232WS02006231    1.00   0.00  0.00  0.00  0.99  0.00  0.01  0.00  0.00  0.00
  WS02006234WS02006232    1.00   0.00  0.00  0.00  1.00  0.00  0.00  0.00  0.16  0.00
  WS02006235WS02006234    1.00   0.00  0.00  0.00  0.79  0.00  0.21  0.00  0.00  0.00
  WS02006238WS02006235    1.00   0.00  0.00  0.00  1.00  0.00  0.00  0.00  0.00  0.00
  WS02006239WS02006238    1.00   0.00  0.00  0.00  1.00  0.00  0.00  0.00  0.27  0.00
  WS02006240WS02006239    1.00   0.00  0.00  0.00  0.67  0.00  0.00  0.33  0.01  0.00
  WS02006242WS02006240    1.00   0.00  0.00  0.00  0.99  0.00  0.01  0.00  0.00  0.00
  WS02006243WS02006242    1.00   0.00  0.00  0.00  0.99  0.00  0.00  0.01  0.39  0.00
  WS02006245WS02006243    1.00   0.00  0.00  0.00  0.73  0.00  0.00  0.27  0.01  0.00
  WS02006247WS02006245    1.00   0.00  0.00  0.00  0.98  0.00  0.00  0.01  0.00  0.00
  WS02006248WS02006247    1.00   0.00  0.00  0.00  0.99  0.00  0.00  0.01  0.17  0.00
  WS02006249WS02006248    1.00   0.00  0.00  0.00  0.60  0.00  0.40  0.00  0.00  0.00
  WS02006251WS02006249    1.00   0.00  0.00  0.00  1.00  0.00  0.00  0.00  0.41  0.00
  WS02006252WS02006251    1.00   0.00  0.44  0.00  0.11  0.00  0.45  0.00  0.00  0.00
  WS02006256WS02006235    1.00   0.00  0.00  0.00  1.00  0.00  0.00  0.00  0.00  0.00
  WSF200WS02003060        1.00   0.00  0.13  0.00  0.25  0.63  0.00  0.00  0.34  0.00
  YS02001580YS02001583    1.00   0.24  0.54  0.00  0.21  0.00  0.00  0.00  0.64  0.00
  YS02001583YS02001586    1.00   0.41  0.32  0.00  0.27  0.00  0.00  0.00  0.64  0.00
  YS02001586YS02001590    1.00   0.13  0.00  0.00  0.45  0.04  0.00  0.38  0.37  0.00
  YS02001590YS02001593    1.00   0.13  0.01  0.00  0.14  0.00  0.73  0.00  0.00  0.00
  YS02001593YS02001596    1.00   0.13  0.00  0.00  0.16  0.01  0.00  0.70  0.02  0.00
  YS02001596YS02001600    1.00   0.13  0.00  0.00  0.21  0.01  0.00  0.64  0.04  0.00
  YS02001600YS02001601    1.00   0.13  0.01  0.00  0.86  0.00  0.00  0.00  0.59  0.00
  YS02001601YS02001602    1.00   0.13  0.01  0.00  0.87  0.00  0.00  0.00  0.00  0.00
  YS02001602YS02001605    1.00   0.13  0.00  0.00  0.87  0.00  0.00  0.00  0.00  0.00
  YS02001605YS02001607    1.00   0.14  0.00  0.00  0.86  0.00  0.00  0.00  0.00  0.00
  YS02001607YS02001610    1.00   0.13  0.01  0.00  0.86  0.00  0.00  0.00  0.01  0.00
  YS02001610YS02001613    1.00   0.13  0.00  0.00  0.87  0.00  0.00  0.00  0.00  0.00
  YS02001613YS02001616    1.00   0.13  0.00  0.00  0.87  0.00  0.00  0.00  0.00  0.00
  YS02001616YS02001619    1.00   0.13  0.00  0.00  0.87  0.00  0.00  0.00  0.00  0.00
  YS02001619YS02001622    1.00   0.13  0.00  0.00  0.87  0.00  0.00  0.00  0.28  0.00
  YS02001622YS02001625    1.00   0.13  0.00  0.00  0.87  0.00  0.00  0.00  0.04  0.00
  YS02001625YS02001629    1.00   0.13  0.04  0.00  0.18  0.00  0.65  0.00  0.00  0.00
  YS02001629YS02163301    1.00   0.15  0.01  0.00  0.84  0.00  0.00  0.00  0.00  0.00
  YS02001633YS02163601    1.00   0.00  0.01  0.00  0.99  0.00  0.00  0.00  0.15  0.00
  YS02001641YS02001644    1.00   0.00  0.01  0.00  0.99  0.00  0.00  0.00  0.00  0.00
  YS02001644YS02001647    1.00   0.00  0.17  0.00  0.83  0.00  0.00  0.00  0.00  0.00
  YS02001647YS02001649    1.00   0.00  0.17  0.00  0.55  0.29  0.00  0.00  0.55  0.00
  YS02001649YS02001757    1.00   0.00  0.00  0.00  0.85  0.15  0.00  0.00  0.41  0.00
  YS02001652YS02001649    1.00   0.00  0.00  0.00  0.97  0.03  0.00  0.00  0.72  0.00
  YS02001655YS02001652    1.00   0.00  0.00  0.00  0.20  0.01  0.00  0.79  0.05  0.00
  YS02001658YS02001655    1.00   0.00  0.14  0.00  0.68  0.18  0.00  0.00  0.67  0.00
  YS02001661YS02001658    1.00   0.14  0.00  0.00  0.52  0.35  0.00  0.00  0.66  0.00
  YS02001664YS02001661    1.00   0.13  0.00  0.00  0.77  0.10  0.00  0.00  0.84  0.00
  YS02001745YS02001748    1.00   0.00  0.00  0.00  0.12  0.01  0.00  0.88  0.05  0.00
  YS02001748YS02001751    1.00   0.00  0.00  0.00  0.84  0.16  0.00  0.00  0.74  0.00
  YS02001751YS02001754    1.00   0.00  0.00  0.00  0.18  0.01  0.00  0.82  0.03  0.00
  YS02001754YS02001757    1.00   0.00  0.00  0.00  1.00  0.00  0.00  0.00  0.80  0.00
  YS02001757CaochengTiaoxuchi    1.00   0.00  0.00  0.00  1.00  0.00  0.00  0.00  0.62  0.00
  YS02001759YS02001757    1.00   0.00  0.00  0.00  0.99  0.01  0.00  0.00  0.51  0.00
  YS02001762YS02001759    1.00   0.00  0.00  0.00  1.00  0.00  0.00  0.00  0.06  0.00
  YS02001765YS02001762    1.00   0.00  0.00  0.00  1.00  0.00  0.00  0.00  0.65  0.00
  YS02001767YS02001765    1.00   0.00  0.00  0.00  1.00  0.00  0.00  0.00  0.01  0.00
  YS02001770YS02001767    1.00   0.00  0.00  0.00  1.00  0.00  0.00  0.00  0.00  0.00
  YS02001774YS02001770    1.00   0.00  0.13  0.00  0.70  0.00  0.16  0.00  0.03  0.00
  YS02001779YS02001774    1.00   0.00  0.00  0.00  1.00  0.00  0.00  0.00  0.75  0.00
  YS02001783YS02001784    1.00   0.00  0.18  0.00  0.82  0.00  0.00  0.00  0.55  0.00
  YS02001784YS02001785    1.00   0.00  0.00  0.00  1.00  0.00  0.00  0.00  0.16  0.00
  YS02001786YS02001788    1.00   0.00  0.00  0.00  0.80  0.20  0.00  0.00  0.00  0.00
  YS02001788YS02001790    1.00   0.00  0.00  0.00  0.21  0.79  0.00  0.00  0.79  0.00
  YS02001790YS02001791    1.00   0.00  0.00  0.00  0.01  0.99  0.00  0.00  0.16  0.00
  YS02001791YS02001793    1.00   0.00  0.00  0.00  0.00  1.00  0.00  0.00  0.01  0.00
  YS02001793JiankangQianchi    1.00   0.00  0.00  0.00  0.96  0.04  0.00  0.00  0.96  0.00
  YS02001882YS02001884    1.00   0.15  0.01  0.00  0.84  0.00  0.00  0.00  0.00  0.00
  YS02001884YS02001887    1.00   0.06  0.05  0.00  0.89  0.00  0.00  0.00  0.00  0.00
  YS02001887YS02001890    1.00   0.00  0.00  0.00  0.97  0.00  0.03  0.00  0.00  0.00
  YS02001890YS02001895    1.00   0.00  0.16  0.00  0.84  0.00  0.00  0.00  0.00  0.00
  YS02001895YS02001898    1.00   0.16  0.00  0.00  0.82  0.00  0.02  0.00  0.00  0.00
  YS02001898YS02001901    1.00   0.16  0.00  0.00  0.84  0.00  0.00  0.00  0.01  0.00
  YS02001901YS02001904    1.00   0.16  0.00  0.00  0.84  0.00  0.00  0.00  0.00  0.00
  YS02001904YS02001907    1.00   0.00  0.16  0.00  0.84  0.00  0.00  0.00  0.00  0.00
  YS02001907YS02006553    1.00   0.00  0.02  0.00  0.98  0.00  0.00  0.00  0.00  0.00
  YS02001910YS02001907    1.00   0.00  0.00  0.00  0.97  0.00  0.00  0.03  0.12  0.00
  YS02001915YS02001910    1.00   0.00  0.00  0.00  0.97  0.03  0.00  0.00  0.15  0.00
  YS02001918YS02001915    1.00   0.00  0.01  0.00  0.98  0.02  0.00  0.00  0.73  0.00
  YS02001920YS02001918    1.00   0.00  0.01  0.00  0.99  0.00  0.00  0.00  0.00  0.00
  YS02001923YS02001920    1.00   0.00  0.00  0.00  1.00  0.00  0.00  0.00  0.91  0.00
  YS02001926YS02001923    1.00   0.00  0.07  0.00  0.07  0.00  0.85  0.00  0.00  0.00
  YS02001929YS02001926    1.00   0.00  0.13  0.00  0.87  0.00  0.00  0.00  0.81  0.00
  YS02006553YS02006556    1.00   0.01  0.00  0.00  0.99  0.00  0.00  0.00  0.03  0.00
  YS02006556YS02006558    1.00   0.00  0.00  0.00  1.00  0.00  0.00  0.00  0.00  0.00
  YS02006558YS02006561    1.00   0.17  0.00  0.00  0.07  0.76  0.00  0.00  0.17  0.00
  YS02006561YS02001783    1.00   0.17  0.00  0.00  0.10  0.72  0.00  0.00  0.67  0.00
  YS02163301YS02001633    1.00   0.00  0.15  0.00  0.85  0.00  0.00  0.00  0.00  0.00
  YS02163601YS02164001    1.00   0.00  0.08  0.00  0.92  0.00  0.00  0.00  0.00  0.00
  YS02164001YS02001641    1.00   0.01  0.07  0.00  0.92  0.00  0.00  0.00  0.05  0.00
  
  
  *************************
  Conduit Surcharge Summary
  *************************
  
  ----------------------------------------------------------------------------
                                                           Hours        Hours 
                         --------- Hours Full --------   Above Full   Capacity
  Conduit                Both Ends  Upstream  Dnstream   Normal Flow   Limited
  ----------------------------------------------------------------------------
  WS02003072WS02003073        0.01      0.01      0.01      1.17         0.01
  WS02004404WS02004405        0.01      0.01      0.01      4.58         0.01
  WS02004405WS02004406        0.01      0.01      0.01      0.70         0.01
  WS02006109WS02006110        0.74      0.74      2.03      0.83         0.01
  WS02006110WS02006113        0.01      0.01      2.02      0.01         0.01
  WS02006111WS02006112        0.01      0.01      2.52      0.01         0.01
  WS02006112WS02006115        0.01      0.01      0.77      0.01         0.01
  WS02006228WS02006109        2.01      2.04      2.01      3.08         2.01
  WS02006229WS02006228        2.01      2.01      2.01      2.46         2.00
  WS02006230WS02006229        2.10      2.37      2.10      4.97         2.10
  WS02006231WS02006230        0.74      0.74      0.90      4.79         0.01
  WS02006232WS02006231        0.86      0.86      2.04      0.91         0.01
  WS02006234WS02006232        1.97      1.97      2.04      0.89         0.88
  WS02006235WS02006234        1.09      1.09      1.98      4.65         0.01
  WS02006238WS02006235        2.00      2.00      2.04      0.01         0.01
  WS02006239WS02006238        2.01      2.02      2.01      2.20         1.82
  WS02006240WS02006239        1.99      2.01      2.00      2.19         1.70
  WS02006242WS02006240        2.01      2.01      2.09      2.41         0.01
  WS02006243WS02006242        2.00      2.00      2.02      0.01         0.03
  WS02006245WS02006243        1.99      2.00      2.00      1.44         1.33
  WS02006247WS02006245        1.99      2.00      1.99      4.45         1.98
  WS02006248WS02006247        1.98      1.98      1.99      0.01         0.03
  WS02006249WS02006248        1.97      1.98      1.98      4.41         0.01
  WS02006251WS02006249        1.97      1.98      1.98      2.27         1.91
  WS02006252WS02006251        2.32      2.32      2.32      2.32         0.01
  WS02006256WS02006235        4.68      4.72      5.78      1.23         0.01
  YS02001580YS02001583        0.76      0.76      0.81      0.01         0.01
  YS02001583YS02001586        0.77      0.77      0.89      0.01         0.01
  YS02001586YS02001590        0.89      0.89      0.97      0.01         0.01
  YS02001590YS02001593        0.97      0.97      0.99      1.01         0.01
  YS02001593YS02001596        0.98      0.98      1.09      0.01         0.01
  YS02001596YS02001600        1.15      1.15      1.25      0.01         0.01
  YS02001600YS02001601        1.30      1.30      1.55      0.01         0.01
  YS02001601YS02001602        1.45      1.45      1.59      1.25         0.01
  YS02001602YS02001605        1.40      1.40      1.45      2.40         0.01
  YS02001605YS02001607        1.36      1.40      1.36      1.51         1.36
  YS02001607YS02001610        0.95      0.95      0.98      0.01         0.01
  YS02001610YS02001613        0.95      0.95      0.98      0.01         0.01
  YS02001613YS02001616        0.90      0.90      0.95      0.01         0.01
  YS02001616YS02001619        0.89      0.89      0.90      0.09         0.11
  YS02001619YS02001622        0.89      0.89      0.89      0.97         0.86
  YS02001622YS02001625        0.89      0.89      1.08      0.01         0.01
  YS02001625YS02001629        0.83      0.83      1.08      0.01         0.01
  YS02001629YS02163301        1.08      1.08      1.09      0.17         0.19
  YS02001633YS02163601        1.11      1.11      1.14      0.38         0.36
  YS02001641YS02001644        1.01      1.05      1.01      1.62         1.00
  YS02001644YS02001647        0.78      0.78      1.01      0.03         0.01
  YS02001647YS02001649        0.78      0.78      0.91      0.01         0.01
  YS02001649YS02001757        0.90      0.91      0.98      0.13         0.08
  YS02001652YS02001649        0.72      0.72      0.91      0.01         0.01
  YS02001655YS02001652        0.53      0.53      0.70      0.01         0.01
  YS02001658YS02001655        0.31      0.31      0.53      0.01         0.01
  YS02001661YS02001658        0.12      0.12      0.31      0.01         0.01
  YS02001664YS02001661        0.01      0.01      0.16      0.01         0.01
  YS02001745YS02001748        0.01      0.01      0.25      0.01         0.01
  YS02001748YS02001751        0.29      0.29      0.40      0.01         0.01
  YS02001751YS02001754        0.40      0.40      0.60      0.01         0.01
  YS02001754YS02001757        0.65      0.65      0.98      0.01         0.01
  YS02001757CaochengTiaoxuchi        0.92      0.98      1.83      0.48         0.38
  YS02001759YS02001757        0.88      0.88      0.98      0.03         0.04
  YS02001762YS02001759        0.84      0.84      0.88      0.01         0.02
  YS02001765YS02001762        0.79      0.79      0.84      0.01         0.01
  YS02001767YS02001765        0.76      0.76      0.79      0.01         0.03
  YS02001770YS02001767        0.76      0.76      0.76      0.64         0.51
  YS02001774YS02001770        0.73      0.73      0.82      0.01         0.01
  YS02001779YS02001774        0.59      0.59      0.82      0.01         0.01
  YS02001783YS02001784        0.62      0.65      0.62      0.82         0.62
  YS02001784YS02001785        0.50      0.62      0.50      1.08         0.50
  YS02001786YS02001788        0.01      0.50      0.01      0.94         0.01
  YS02001790YS02001791        0.01      0.01      0.01      0.61         0.01
  YS02001793JiankangQianchi        0.01      0.01      7.42      0.01         0.01
  YS02001882YS02001884        0.59      0.59      0.60      0.01         0.01
  YS02001884YS02001887        0.63      0.63      0.64      0.01         0.01
  YS02001887YS02001890        0.65      0.65      0.66      0.19         0.01
  YS02001890YS02001895        0.58      0.58      0.68      0.01         0.01
  YS02001895YS02001898        0.57      0.57      0.58      0.01         0.01
  YS02001898YS02001901        0.58      0.58      0.62      0.01         0.01
  YS02001901YS02001904        0.61      0.61      0.62      0.01         0.01
  YS02001904YS02001907        0.61      0.61      0.92      0.01         0.01
  YS02001907YS02006553        1.09      1.09      1.16      0.01         0.01
  YS02001910YS02001907        0.68      0.68      0.89      0.07         0.07
  YS02001915YS02001910        0.59      0.59      0.68      0.01         0.01
  YS02001918YS02001915        0.49      0.49      0.59      0.01         0.01
  YS02001920YS02001918        0.49      0.49      0.51      0.01         0.01
  YS02001923YS02001920        0.45      0.45      0.51      0.01         0.01
  YS02001926YS02001923        0.20      0.20      0.24      0.01         0.01
  YS02001929YS02001926        0.09      0.09      0.24      0.01         0.01
  YS02006553YS02006556        0.78      0.78      0.91      0.01         0.01
  YS02006556YS02006558        0.85      0.85      0.93      0.01         0.01
  YS02006558YS02006561        0.53      0.77      0.53      1.02         0.53
  YS02006561YS02001783        0.46      0.46      0.65      0.01         0.01
  YS02163301YS02001633        1.09      1.09      1.12      0.01         0.01
  YS02163601YS02164001        1.05      1.05      1.14      0.11         0.01
  YS02164001YS02001641        1.05      1.05      1.05      0.76         0.70
  
  
  ***************
  Pumping Summary
  ***************
  
  ---------------------------------------------------------------------------------------------------------
                                                  Min       Avg       Max     Total     Power    % Time Off
                        Percent   Number of      Flow      Flow      Flow    Volume     Usage    Pump Curve
  Pump                 Utilized   Start-Ups       LPS       LPS       LPS  10^6 ltr     Kw-hr    Low   High
  ---------------------------------------------------------------------------------------------------------
  CC-R1                   19.50           3      0.00    683.00    683.00     3.836     71.79    0.0   20.3
  CC-R2                   19.64           3      0.00    683.00    683.00     3.863     72.20    0.0   21.6
  CC-S1                   51.06           7      0.00    200.00    200.00     2.941     17.50    0.0    0.0
  CC-S2                   34.23          10      0.00    200.00    200.00     1.972     11.61    0.0    0.0
  JK-R1                    5.93          13      0.00   1000.00   1000.00     1.707     17.55    0.0    0.0
  JK-R2                    5.41           8      0.00   1000.00   1000.00     1.559     14.04    0.0    0.0
  JK-S                    15.30          13      0.00    300.00    300.00     1.322     20.87    0.0    0.0
  

  Analysis begun on:  Wed Jan 15 10:23:28 2025
  Analysis ended on:  Wed Jan 15 10:23:30 2025
  Total elapsed time: 00:00:02