
  EPA STORM WATER MANAGEMENT MODEL - VERSION 5.2 (Build 5.2.4)
  PYSWMM TOOLKIT API - VERSION v1.0 (2023-11-27)
  ------------------------------------------------------------

  WARNING 04: minimum elevation drop used for Conduit WS02004404WS02004405
  WARNING 03: negative offset ignored for Link YS02001904YS02001907
  
  ****************
  Analysis Options
  ****************
  Flow Units ............... LPS
  Process Models:
    Rainfall/Runoff ........ YES
    RDII ................... NO
    Snowmelt ............... NO
    Groundwater ............ NO
    Flow Routing ........... YES
    Ponding Allowed ........ NO
    Water Quality .......... NO
  Infiltration Method ...... HORTON
  Flow Routing Method ...... DYNWAVE
  Surcharge Method ......... EXTRAN
  Starting Date ............ 08/28/2015 08:00:00
  Ending Date .............. 08/28/2015 16:00:00
  Antecedent Dry Days ...... 8.0
  Report Time Step ......... 00:01:00
  Wet Time Step ............ 00:01:00
  Dry Time Step ............ 00:01:00
  Routing Time Step ........ 30.00 sec
  Variable Time Step ....... YES
  Maximum Trials ........... 8
  Number of Threads ........ 4
  Head Tolerance ........... 0.001500 m
  
  
  **************************        Volume         Depth
  Runoff Quantity Continuity     hectare-m            mm
  **************************     ---------       -------
  Total Precipitation ......         2.870        86.517
  Evaporation Loss .........         0.000         0.000
  Infiltration Loss ........         0.102         3.067
  Surface Runoff ...........         2.736        82.477
  Final Storage ............         0.033         0.995
  Continuity Error (%) .....        -0.025
  
  
  **************************        Volume        Volume
  Flow Routing Continuity        hectare-m      10^6 ltr
  **************************     ---------     ---------
  Dry Weather Inflow .......         0.025         0.251
  Wet Weather Inflow .......         2.735        27.354
  Groundwater Inflow .......         0.000         0.000
  RDII Inflow ..............         0.000         0.000
  External Inflow ..........         0.083         0.834
  External Outflow .........         1.864        18.639
  Flooding Loss ............         1.044        10.438
  Evaporation Loss .........         0.000         0.000
  Exfiltration Loss ........         0.000         0.000
  Initial Stored Volume ....         0.243         2.431
  Final Stored Volume ......         0.187         1.873
  Continuity Error (%) .....        -0.259
  
  
  *************************
  Highest Continuity Errors
  *************************
  Node YS02001583 (-9.68%)
  Node YS02001884 (5.12%)
  
  
  ***************************
  Time-Step Critical Elements
  ***************************
  Link WS02006252WS02006251 (48.73%)
  Link WS02004404WS02004405 (13.43%)
  Link WS02006238WS02006235 (12.52%)
  Link YS02001791YS02001793 (6.45%)
  Link WS02006235WS02006234 (5.61%)
  
  
  ********************************
  Highest Flow Instability Indexes
  ********************************
  Link WS02006113WS02006111 (55)
  Link WS02006111WS02006112 (27)
  Link WS02004404WS02004405 (22)
  Link WS02004403WS02004404 (19)
  Link WS02004405WS02004406 (18)
  
  
  *********************************
  Most Frequent Nonconverging Nodes
  *********************************
  Node CC-1 (11.18%)
  Node CC-2 (11.18%)
  Node JK-1 (11.18%)
  Node JK-2 (11.18%)
  Node WSC (11.18%)
  
  
  *************************
  Routing Time Step Summary
  *************************
  Minimum Time Step           :     0.00 sec
  Average Time Step           :     1.78 sec
  Maximum Time Step           :     7.04 sec
  % of Time in Steady State   :     0.00
  Average Iterations per Step :     3.05
  % of Steps Not Converging   :    11.18
  Time Step Frequencies       :
     30.000 - 13.228 sec      :     0.00 %
     13.228 -  5.833 sec      :     7.71 %
      5.833 -  2.572 sec      :    12.09 %
      2.572 -  1.134 sec      :    25.32 %
      1.134 -  0.500 sec      :    54.88 %
  
  
  ***************************
  Subcatchment Runoff Summary
  ***************************
  
  ------------------------------------------------------------------------------------------------------------------------------
                            Total      Total      Total      Total     Imperv       Perv      Total       Total     Peak  Runoff
                           Precip      Runon       Evap      Infil     Runoff     Runoff     Runoff      Runoff   Runoff   Coeff
  Subcatchment                 mm         mm         mm         mm         mm         mm         mm    10^6 ltr      LPS
  ------------------------------------------------------------------------------------------------------------------------------
  sub60                     86.52       0.00       0.00       1.86      74.94       8.53      83.47        1.10   675.48   0.965
  sub61                     86.52       0.00       0.00       2.69      70.69      12.02      82.71        1.52   934.00   0.956
  sub62                     86.52       0.00       0.00       1.24      78.32       5.69      84.00        2.30  1316.88   0.971
  sub63                     86.52       0.00       0.00       4.94      60.46      20.16      80.62        1.83  1036.67   0.932
  sub64                     86.52       0.00       0.00       2.50      72.34      10.48      82.82        1.99  1069.32   0.957
  sub65                     86.52       0.00       0.00       2.17      74.02       9.09      83.11        2.29  1194.29   0.961
  sub66                     86.52       0.00       0.00       6.06      60.36      19.03      79.39        3.70  1553.89   0.918
  sub67                     86.52       0.00       0.00       1.19      78.36       5.73      84.09        1.56  1021.82   0.972
  sub68                     86.52       0.00       0.00       2.23      73.23       9.89      83.11        2.29  1350.73   0.961
  sub69                     86.52       0.00       0.00       1.99      73.43      10.99      84.43        3.13  1594.22   0.976
  sub70                     86.52       0.00       0.00       6.55      56.94      22.87      79.81        2.31   874.78   0.922
  sub71                     86.52       0.00       0.00       1.27      78.27       5.65      83.93        2.19  1159.20   0.970
  sub72                     86.52       0.00       0.00       1.13      79.06       4.93      83.99        1.15   559.26   0.971
  
  
  ******************
  Node Depth Summary
  ******************
  
  ---------------------------------------------------------------------------------
                                 Average  Maximum  Maximum  Time of Max    Reported
                                   Depth    Depth      HGL   Occurrence   Max Depth
  Node                 Type       Meters   Meters   Meters  days hr:min      Meters
  ---------------------------------------------------------------------------------
  WS02003060           JUNCTION     0.26     0.38     5.32     0  02:07        0.38
  WS02003066           JUNCTION     0.22     0.30     5.85     0  02:07        0.30
  WS02003067           JUNCTION     0.54     0.70     6.02     0  02:06        0.70
  WS02003069           JUNCTION     0.29     0.43     5.02     0  02:08        0.43
  WS02003072           JUNCTION     0.36     0.50     4.87     0  02:09        0.50
  WS02003073           JUNCTION     0.21     0.30     4.36     0  02:09        0.30
  WS02004401           JUNCTION     0.65     0.88     6.88     0  02:05        0.88
  WS02004402           JUNCTION     0.68     0.90     6.86     0  02:06        0.90
  WS02004403           JUNCTION     0.70     0.92     6.85     0  02:04        0.92
  WS02004404           JUNCTION     0.78     1.04     6.89     0  02:25        1.00
  WS02004405           JUNCTION     0.76     0.97     6.82     0  02:05        0.97
  WS02004406           JUNCTION     0.77     0.96     6.79     0  02:06        0.96
  WS02004407           JUNCTION     0.20     0.30     6.61     0  02:05        0.30
  WS02004409           JUNCTION     0.45     0.67     6.44     0  02:06        0.67
  WS02004410           JUNCTION     0.47     0.68     6.40     0  02:05        0.68
  WS02004411           JUNCTION     0.49     0.69     6.37     0  02:07        0.69
  WS02004412           JUNCTION     0.51     0.70     6.34     0  02:07        0.70
  WS02004413           JUNCTION     0.67     0.86     6.33     0  02:06        0.86
  WS02006109           JUNCTION     0.70     1.16     7.77     0  02:10        1.00
  WS02006110           JUNCTION     0.70     1.16     7.74     0  02:10        1.03
  WS02006111           JUNCTION     0.20     0.29     6.99     0  02:48        0.29
  WS02006112           JUNCTION     0.81     1.08     6.97     0  02:46        1.07
  WS02006113           JUNCTION     0.31     0.46     7.35     0  02:42        0.46
  WS02006115           JUNCTION     0.53     0.77     6.91     0  02:05        0.77
  WS02006116           JUNCTION     0.62     0.86     6.90     0  02:05        0.86
  WS02006228           JUNCTION     0.70     1.14     7.79     0  02:10        1.03
  WS02006229           JUNCTION     0.67     1.28     7.97     0  02:23        1.28
  WS02006230           JUNCTION     0.68     1.34     8.08     0  02:46        1.21
  WS02006231           JUNCTION     0.47     1.24     8.36     0  02:45        0.97
  WS02006232           JUNCTION     0.61     1.33     8.36     0  02:45        1.19
  WS02006234           JUNCTION     0.54     1.68     8.83     0  02:09        1.24
  WS02006235           JUNCTION     0.58     2.00     9.16     0  03:49        2.00
  WS02006238           JUNCTION     0.61     2.15     9.29     0  03:49        2.15
  WS02006239           JUNCTION     0.58     2.03     9.24     0  03:49        2.03
  WS02006240           JUNCTION     0.55     2.10     9.39     0  03:49        2.10
  WS02006242           JUNCTION     0.62     1.55     8.82     0  02:09        1.55
  WS02006243           JUNCTION     0.52     1.42     8.84     0  02:09        1.26
  WS02006245           JUNCTION     0.52     1.33     8.82     0  02:09        1.21
  WS02006247           JUNCTION     0.54     1.28     8.78     0  02:09        1.19
  WS02006248           JUNCTION     0.50     1.10     8.69     0  01:46        1.10
  WS02006249           JUNCTION     0.53     1.09     8.69     0  01:33        1.09
  WS02006251           JUNCTION     0.53     1.49     9.16     0  01:33        1.29
  WS02006252           JUNCTION     0.39     1.50     9.74     0  00:00        0.85
  WS02006256           JUNCTION     1.02     2.35     9.28     0  00:00        2.35
  WSF200               JUNCTION     0.19     0.29     5.52     0  02:07        0.29
  YS02001580           JUNCTION     0.11     1.05     9.59     0  01:33        0.79
  YS02001583           JUNCTION     0.15     1.14     9.64     0  01:33        0.82
  YS02001586           JUNCTION     0.22     1.13     9.30     0  01:32        1.13
  YS02001590           JUNCTION     0.31     1.38     9.24     0  01:33        1.38
  YS02001593           JUNCTION     0.25     1.31     9.17     0  01:33        1.31
  YS02001596           JUNCTION     0.33     1.67     9.09     0  01:33        1.66
  YS02001600           JUNCTION     0.39     1.87     9.00     0  01:33        1.87
  YS02001601           JUNCTION     0.57     2.06     8.90     0  01:31        2.06
  YS02001602           JUNCTION     0.48     1.87     8.77     0  01:33        1.87
  YS02001605           JUNCTION     0.45     1.78     8.68     0  01:33        1.78
  YS02001607           JUNCTION     0.45     1.66     8.51     0  01:33        1.65
  YS02001610           JUNCTION     0.50     1.68     8.48     0  01:33        1.68
  YS02001613           JUNCTION     0.46     1.67     8.51     0  01:33        1.67
  YS02001616           JUNCTION     0.39     1.61     8.52     0  01:33        1.61
  YS02001619           JUNCTION     0.36     1.61     8.54     0  01:33        1.61
  YS02001622           JUNCTION     0.35     1.59     8.50     0  01:34        1.59
  YS02001625           JUNCTION     0.63     1.78     8.38     0  01:33        1.78
  YS02001629           JUNCTION     0.47     1.85     8.40     0  01:33        1.85
  YS02001633           JUNCTION     0.56     2.08     8.53     0  01:35        2.03
  YS02001641           JUNCTION     0.54     2.10     8.54     0  02:28        2.10
  YS02001644           JUNCTION     0.54     1.92     8.35     0  01:35        1.92
  YS02001647           JUNCTION     0.34     1.80     8.41     0  01:36        1.78
  YS02001649           JUNCTION     0.38     2.05     8.44     0  01:36        2.05
  YS02001652           JUNCTION     0.28     2.16     8.76     0  01:36        1.90
  YS02001655           JUNCTION     0.23     2.20     9.05     0  01:36        1.72
  YS02001658           JUNCTION     0.17     2.30     9.44     0  01:36        1.50
  YS02001661           JUNCTION     0.18     2.46     9.86     0  01:36        1.32
  YS02001664           JUNCTION     0.06     2.31    10.23     0  01:36        0.86
  YS02001745           JUNCTION     0.08     2.16     9.68     0  01:36        0.82
  YS02001748           JUNCTION     0.16     2.27     9.35     0  01:36        1.25
  YS02001751           JUNCTION     0.20     2.20     9.08     0  01:36        1.45
  YS02001754           JUNCTION     0.26     2.20     8.81     0  01:36        1.72
  YS02001757           JUNCTION     0.40     2.21     8.47     0  01:36        2.06
  YS02001759           JUNCTION     0.35     2.21     8.57     0  01:36        2.07
  YS02001762           JUNCTION     0.34     2.15     8.55     0  01:36        2.03
  YS02001765           JUNCTION     0.32     2.10     8.55     0  01:36        1.98
  YS02001767           JUNCTION     0.32     2.03     8.52     0  01:36        1.95
  YS02001770           JUNCTION     0.33     1.95     8.44     0  01:35        1.95
  YS02001774           JUNCTION     0.40     2.00     8.43     0  01:35        2.00
  YS02001779           JUNCTION     0.24     1.68     8.37     0  01:35        1.68
  YS02001783           JUNCTION     0.24     1.33     7.47     0  01:34        1.23
  YS02001784           JUNCTION     0.25     1.20     7.27     0  01:34        1.12
  YS02001786           JUNCTION     0.21     0.95     6.98     0  01:34        0.87
  YS02001788           JUNCTION     0.15     0.62     6.60     0  01:36        0.62
  YS02001790           JUNCTION     0.18     0.72     6.37     0  01:36        0.71
  YS02001791           JUNCTION     0.11     0.44     5.91     0  01:40        0.43
  YS02001793           JUNCTION     0.06     0.29     5.12     0  01:36        0.28
  YS02001882           JUNCTION     0.32     1.81     8.52     0  01:33        1.68
  YS02001884           JUNCTION     0.41     1.88     8.49     0  01:33        1.78
  YS02001887           JUNCTION     0.49     1.89     8.43     0  01:33        1.86
  YS02001890           JUNCTION     0.52     1.81     8.32     0  01:33        1.81
  YS02001895           JUNCTION     0.29     1.65     8.40     0  01:34        1.57
  YS02001898           JUNCTION     0.30     1.71     8.44     0  01:34        1.58
  YS02001901           JUNCTION     0.41     1.80     8.41     0  01:34        1.68
  YS02001904           JUNCTION     0.39     1.72     8.35     0  01:34        1.64
  YS02001907           JUNCTION     0.72     1.96     8.25     0  01:34        1.96
  YS02001910           JUNCTION     0.52     2.10     8.61     0  01:34        2.10
  YS02001915           JUNCTION     0.33     1.96     8.68     0  01:35        1.93
  YS02001918           JUNCTION     0.19     1.81     8.88     0  01:35        1.63
  YS02001920           JUNCTION     0.27     2.14     9.15     0  01:35        1.70
  YS02001923           JUNCTION     0.15     2.03     9.29     0  01:35        1.46
  YS02001926           JUNCTION     0.18     1.90     9.35     0  01:35        1.28
  YS02001929           JUNCTION     0.11     1.78     9.47     0  01:35        1.07
  YS02006553           JUNCTION     0.72     2.00     8.28     0  01:34        1.99
  YS02006556           JUNCTION     0.69     2.00     8.31     0  01:34        2.00
  YS02006558           JUNCTION     0.74     2.05     8.32     0  01:34        2.05
  YS02006561           JUNCTION     0.16     1.03     7.69     0  01:34        0.91
  YS02163301           JUNCTION     0.50     1.95     8.47     0  01:35        1.93
  YS02163601           JUNCTION     0.60     2.08     8.48     0  01:35        2.08
  YS02164001           JUNCTION     0.53     2.10     8.56     0  02:28        2.10
  CC-1                 OUTFALL      0.00     0.00     0.00     0  00:00        0.00
  CC-2                 OUTFALL      0.00     0.00     0.00     0  00:00        0.00
  JK-1                 OUTFALL      0.00     0.00     0.00     0  00:00        0.00
  JK-2                 OUTFALL      0.00     0.00     0.00     0  00:00        0.00
  WSC                  OUTFALL      0.21     0.30     0.97     0  02:10        0.30
  CC-storage           STORAGE      0.90     1.77     7.27     0  02:22        1.77
  JK-storage           STORAGE      3.07     4.23     5.03     0  01:35        4.18
  
  
  *******************
  Node Inflow Summary
  *******************
  
  -------------------------------------------------------------------------------------------------
                                  Maximum  Maximum                  Lateral       Total        Flow
                                  Lateral    Total  Time of Max      Inflow      Inflow     Balance
                                   Inflow   Inflow   Occurrence      Volume      Volume       Error
  Node                 Type           LPS      LPS  days hr:min    10^6 ltr    10^6 ltr     Percent
  -------------------------------------------------------------------------------------------------
  WS02003060           JUNCTION     16.53   555.65     0  02:07       0.476        6.68       0.029
  WS02003066           JUNCTION      0.00   538.89     0  02:07           0        6.21       0.020
  WS02003067           JUNCTION      0.00   538.78     0  02:06           0        6.21       0.065
  WS02003069           JUNCTION      0.32   555.93     0  02:07     0.00922        6.69       0.052
  WS02003072           JUNCTION      0.00   555.61     0  02:08           0        6.68       0.096
  WS02003073           JUNCTION      1.82   557.25     0  02:09      0.0524        6.73       0.074
  WS02004401           JUNCTION      0.00   538.99     0  02:49           0         6.3       0.156
  WS02004402           JUNCTION      0.00   541.49     0  03:00           0        6.29       0.160
  WS02004403           JUNCTION      0.00   541.21     0  02:59           0        6.28       0.154
  WS02004404           JUNCTION      0.16   559.07     0  02:06     0.00467        6.28       0.143
  WS02004405           JUNCTION      0.04   604.07     0  02:04      0.0011        6.27       0.117
  WS02004406           JUNCTION      0.00   546.37     0  02:05           0        6.26       0.323
  WS02004407           JUNCTION      0.00   540.69     0  02:06           0        6.24       0.014
  WS02004409           JUNCTION      0.00   540.05     0  02:05           0        6.24       0.037
  WS02004410           JUNCTION      0.00   539.95     0  02:05           0        6.24       0.064
  WS02004411           JUNCTION      0.00   539.47     0  02:05           0        6.23       0.082
  WS02004412           JUNCTION      0.00   539.40     0  02:06           0        6.23       0.113
  WS02004413           JUNCTION      0.00   539.12     0  02:06           0        6.22       0.202
  WS02006109           JUNCTION      1.23   555.77     0  01:46      0.0354        6.34       0.126
  WS02006110           JUNCTION      0.00   555.99     0  02:46           0        6.34       0.098
  WS02006111           JUNCTION      0.00   561.87     0  03:35           0        6.33       0.010
  WS02006112           JUNCTION      0.00   543.42     0  02:48           0        6.33       0.273
  WS02006113           JUNCTION      0.00   573.94     0  01:34           0        6.33       0.027
  WS02006115           JUNCTION      0.00   551.16     0  02:41           0        6.31       0.098
  WS02006116           JUNCTION      0.00   539.86     0  02:52           0         6.3       0.030
  WS02006228           JUNCTION      0.00   554.42     0  01:46           0        6.31       0.033
  WS02006229           JUNCTION      0.00   554.21     0  01:46           0        6.31       0.073
  WS02006230           JUNCTION     10.28   618.75     0  03:49       0.296        6.32       0.043
  WS02006231           JUNCTION      0.00   630.03     0  03:49           0        6.02      -0.020
  WS02006232           JUNCTION      0.00   624.59     0  03:49           0        6.03       0.160
  WS02006234           JUNCTION      0.00   597.65     0  03:49           0        6.02      -0.128
  WS02006235           JUNCTION      0.00   569.56     0  01:34           0        6.04       0.120
  WS02006238           JUNCTION      0.00   424.48     0  02:15           0        5.02      -0.167
  WS02006239           JUNCTION      0.00   423.58     0  02:15           0        5.01      -0.185
  WS02006240           JUNCTION      0.00   421.57     0  02:15           0           5      -0.049
  WS02006242           JUNCTION      0.00   421.07     0  02:15           0           5      -0.000
  WS02006243           JUNCTION      0.00   421.96     0  03:30           0        4.99      -0.065
  WS02006245           JUNCTION      0.00   422.37     0  03:30           0           5       0.217
  WS02006247           JUNCTION      0.00   421.73     0  03:30           0           5       0.005
  WS02006248           JUNCTION      0.00   422.74     0  03:30           0        5.01       0.035
  WS02006249           JUNCTION      0.00   459.02     0  00:00           0        5.28       0.159
  WS02006251           JUNCTION      0.08   411.19     0  01:33     0.00222        5.28       0.015
  WS02006252           JUNCTION      0.00   400.00     0  00:00           0        5.27      -0.067
  WS02006256           JUNCTION      0.00   300.00     0  00:00           0         1.5      -0.661
  WSF200               JUNCTION      0.00   538.96     0  02:07           0         6.2       0.005
  YS02001580           JUNCTION      0.00   144.40     0  01:32           0     0.00457       3.520
  YS02001583           JUNCTION      0.00   238.33     0  01:33           0      0.0151      -8.824
  YS02001586           JUNCTION    874.78   875.28     0  01:42        2.31        2.32       0.062
  YS02001590           JUNCTION      0.00   318.26     0  01:49           0        1.62      -0.023
  YS02001593           JUNCTION      0.00   318.17     0  01:49           0        1.62      -0.002
  YS02001596           JUNCTION      0.00   318.03     0  02:05           0        1.62      -0.009
  YS02001600           JUNCTION      0.00   318.15     0  02:11           0        1.62      -0.001
  YS02001601           JUNCTION   1594.22  1911.72     0  01:40        3.13        4.75       0.012
  YS02001602           JUNCTION      0.00   573.56     0  01:32           0        2.62       0.014
  YS02001605           JUNCTION      0.00   573.49     0  01:32           0        2.45       0.015
  YS02001607           JUNCTION      0.00   573.48     0  01:32           0        2.45       0.081
  YS02001610           JUNCTION      0.00   879.71     0  01:42           0        2.92       0.073
  YS02001613           JUNCTION      0.00   545.86     0  01:33           0        2.23       0.071
  YS02001616           JUNCTION      0.00   548.92     0  01:33           0        2.23       0.024
  YS02001619           JUNCTION   1553.89  1553.89     0  01:42         3.7        5.45      -0.004
  YS02001622           JUNCTION      0.00  1014.18     0  01:41           0        4.97      -0.009
  YS02001625           JUNCTION      0.00  1433.80     0  01:43           0        5.31       0.172
  YS02001629           JUNCTION      0.00   924.82     0  01:33           0         3.9      -0.014
  YS02001633           JUNCTION   1194.49  1440.26     0  01:34        2.29        5.73       0.056
  YS02001641           JUNCTION      0.00  1435.84     0  01:34           0         5.3       0.049
  YS02001644           JUNCTION   1069.36  1948.03     0  01:34        1.99        7.28       0.037
  YS02001647           JUNCTION      0.00  1947.03     0  01:34           0        6.48       0.003
  YS02001649           JUNCTION      0.00  2217.29     0  01:35           0        8.32       0.011
  YS02001652           JUNCTION      0.00  1077.09     0  01:37           0        1.84      -0.076
  YS02001655           JUNCTION      0.15  1077.08     0  01:37     0.00443        1.84      -0.086
  YS02001658           JUNCTION      0.00  1076.99     0  01:37           0        1.84      -0.084
  YS02001661           JUNCTION      0.00  1074.10     0  01:37           0        1.84       0.029
  YS02001664           JUNCTION   1036.67  1036.67     0  01:39        1.83        1.83      -0.025
  YS02001745           JUNCTION    675.49   744.68     0  01:36         1.1         1.1       0.209
  YS02001748           JUNCTION      0.04   842.80     0  01:35      0.0013         1.1      -0.247
  YS02001751           JUNCTION      0.01   686.74     0  01:39    0.000317        1.11       0.061
  YS02001754           JUNCTION      0.26   687.03     0  01:39     0.00749        1.12      -0.208
  YS02001757           JUNCTION      0.00  3629.12     0  01:37           0        12.9       0.042
  YS02001759           JUNCTION    934.04  1570.05     0  01:36        1.52        3.43      -0.011
  YS02001762           JUNCTION      0.00   829.60     0  01:36           0        1.91      -0.001
  YS02001765           JUNCTION      0.00   834.38     0  01:36           0        1.91      -0.001
  YS02001767           JUNCTION      0.54   837.08     0  01:36      0.0154        1.91      -0.005
  YS02001770           JUNCTION   1317.03  1317.03     0  01:39        2.31        2.35      -0.024
  YS02001774           JUNCTION      0.00   767.42     0  01:39           0       0.476       0.221
  YS02001779           JUNCTION      0.01   767.56     0  01:39    0.000144       0.428      -0.338
  YS02001783           JUNCTION      0.00  1170.61     0  01:37           0        4.91       0.004
  YS02001784           JUNCTION      1.06  1171.67     0  01:37      0.0305        4.94       0.011
  YS02001786           JUNCTION      0.06  1171.87     0  01:37     0.00162        4.94       0.012
  YS02001788           JUNCTION      0.07  1171.93     0  01:37     0.00204        4.94       0.006
  YS02001790           JUNCTION      0.15  1182.96     0  01:36     0.00446        4.94       0.025
  YS02001791           JUNCTION      0.00  1284.52     0  01:36           0        4.94      -0.027
  YS02001793           JUNCTION      0.00  1264.83     0  01:36           0        4.94       0.006
  YS02001882           JUNCTION      0.00   102.76     0  01:33           0      0.0132       5.467
  YS02001884           JUNCTION      0.00   137.35     0  01:33           0      0.0495       5.397
  YS02001887           JUNCTION   1022.27  1022.39     0  01:38        1.58        1.61       0.275
  YS02001890           JUNCTION      0.00  1022.55     0  01:38           0        1.57       0.330
  YS02001895           JUNCTION      0.00   573.43     0  01:34           0        1.34       0.143
  YS02001898           JUNCTION      0.00   579.61     0  01:34           0        1.34      -0.002
  YS02001901           JUNCTION      0.00   586.15     0  01:34           0        1.34       0.253
  YS02001904           JUNCTION      0.00   588.08     0  01:34           0        1.35       0.217
  YS02001907           JUNCTION      0.00  2408.85     0  01:40           0        4.82       0.370
  YS02001910           JUNCTION      0.00  1727.49     0  01:40           0        3.43       0.213
  YS02001915           JUNCTION   1159.22  1726.80     0  01:40         2.2        3.48       0.033
  YS02001918           JUNCTION      0.00   647.11     0  01:34           0        1.32       0.018
  YS02001920           JUNCTION      2.87   633.51     0  01:34      0.0827         1.3      -0.003
  YS02001923           JUNCTION      0.04   863.73     0  01:34     0.00109         1.2      -0.072
  YS02001926           JUNCTION      0.05  1113.43     0  01:34      0.0015        1.18      -0.081
  YS02001929           JUNCTION    559.26   876.42     0  01:35        1.15        1.16      -0.148
  YS02006553           JUNCTION      0.00   793.51     0  02:05           0        2.74       0.434
  YS02006556           JUNCTION      0.00   793.62     0  02:05           0        2.75       0.293
  YS02006558           JUNCTION   1351.61  1351.61     0  01:39        2.31        4.99       0.070
  YS02006561           JUNCTION      0.00  1176.47     0  01:34           0        4.91      -0.001
  YS02163301           JUNCTION      0.00   910.76     0  01:34           0        3.88       0.041
  YS02163601           JUNCTION      0.11  1439.11     0  01:34     0.00317        5.29       0.089
  YS02164001           JUNCTION      0.00  1438.53     0  01:34           0        5.29       0.036
  CC-1                 OUTFALL       0.00   683.00     0  00:00           0        4.31       0.000
  CC-2                 OUTFALL       0.00   683.00     0  00:00           0        4.11       0.000
  JK-1                 OUTFALL       0.00  1000.00     0  00:00           0        2.21       0.000
  JK-2                 OUTFALL       0.00  1000.00     0  00:00           0        1.29       0.000
  WSC                  OUTFALL       0.00   556.92     0  02:10           0        6.72       0.000
  CC-storage           STORAGE       0.00  3629.73     0  01:37           0        15.1      -0.206
  JK-storage           STORAGE       0.00  1311.16     0  01:45           0        5.09      -0.175
  
  
  **********************
  Node Surcharge Summary
  **********************
  
  Surcharging occurs when water rises above the top of the highest conduit.
  ---------------------------------------------------------------------
                                               Max. Height   Min. Depth
                                   Hours       Above Crown    Below Rim
  Node                 Type      Surcharged         Meters       Meters
  ---------------------------------------------------------------------
  WS02004404           JUNCTION        0.03          0.038        2.742
  WS02006109           JUNCTION        2.33          0.337        1.483
  WS02006110           JUNCTION        0.90          0.248        1.602
  WS02006112           JUNCTION        1.07          0.084        1.596
  WS02006228           JUNCTION        2.31          0.307        1.893
  WS02006229           JUNCTION        2.34          0.476        1.974
  WS02006230           JUNCTION        0.93          0.260        1.310
  WS02006231           JUNCTION        1.05          0.531        0.999
  WS02006232           JUNCTION        2.48          0.625        0.855
  WS02006234           JUNCTION        1.48          0.958        0.282
  WS02006235           JUNCTION        2.32          1.290        0.000
  WS02006238           JUNCTION        2.41          1.430        0.000
  WS02006239           JUNCTION        2.33          1.290        0.000
  WS02006240           JUNCTION        2.33          1.390        0.000
  WS02006242           JUNCTION        2.47          0.820        0.000
  WS02006243           JUNCTION        2.33          0.709        0.061
  WS02006245           JUNCTION        2.33          0.621        0.229
  WS02006247           JUNCTION        2.36          0.569        0.191
  WS02006248           JUNCTION        2.30          0.380        0.000
  WS02006249           JUNCTION        2.34          0.390        0.000
  WS02006251           JUNCTION        1.12          0.457        0.723
  WS02006252           JUNCTION        2.92          1.100        0.000
  WS02006256           JUNCTION        6.00          2.050        0.000
  YS02001580           JUNCTION        0.86          0.450        0.000
  YS02001583           JUNCTION        0.87          0.500        0.000
  YS02001586           JUNCTION        1.05          0.510        0.000
  YS02001590           JUNCTION        1.14          0.732        0.018
  YS02001593           JUNCTION        1.14          0.693        0.147
  YS02001596           JUNCTION        1.27          0.939        0.131
  YS02001600           JUNCTION        1.45          1.190        0.000
  YS02001601           JUNCTION        1.73          1.440        0.000
  YS02001602           JUNCTION        1.65          1.270        0.000
  YS02001605           JUNCTION        1.62          1.180        0.000
  YS02001607           JUNCTION        1.14          0.662        0.018
  YS02001610           JUNCTION        1.17          0.680        0.000
  YS02001613           JUNCTION        1.14          0.673        0.027
  YS02001616           JUNCTION        1.09          0.610        0.000
  YS02001619           JUNCTION        1.08          0.610        0.000
  YS02001622           JUNCTION        1.08          0.594        0.026
  YS02001625           JUNCTION        1.28          0.780        0.000
  YS02001629           JUNCTION        1.01          0.470        0.000
  YS02001633           JUNCTION        1.32          1.060        0.000
  YS02001641           JUNCTION        1.28          1.100        0.000
  YS02001644           JUNCTION        1.25          0.920        0.000
  YS02001647           JUNCTION        1.02          0.797        0.103
  YS02001649           JUNCTION        1.19          1.050        0.000
  YS02001652           JUNCTION        0.94          1.130        0.000
  YS02001655           JUNCTION        0.68          1.200        0.000
  YS02001658           JUNCTION        0.35          1.300        0.000
  YS02001661           JUNCTION        0.11          1.390        0.000
  YS02001664           JUNCTION        0.01          1.310        0.000
  YS02001745           JUNCTION        0.01          1.161        0.189
  YS02001748           JUNCTION        0.25          1.190        0.000
  YS02001751           JUNCTION        0.49          1.200        0.000
  YS02001754           JUNCTION        0.83          1.150        0.000
  YS02001757           JUNCTION        1.27          1.210        0.000
  YS02001759           JUNCTION        1.17          1.206        0.004
  YS02001762           JUNCTION        1.13          1.150        0.000
  YS02001765           JUNCTION        1.07          1.100        0.000
  YS02001767           JUNCTION        1.03          1.030        0.000
  YS02001770           JUNCTION        0.99          0.920        0.000
  YS02001774           JUNCTION        1.10          1.004        0.046
  YS02001779           JUNCTION        0.80          0.680        0.000
  YS02001783           JUNCTION        0.73          0.531        1.069
  YS02001784           JUNCTION        0.70          0.401        1.089
  YS02001786           JUNCTION        0.59          0.147        1.283
  YS02001882           JUNCTION        0.66          0.805        0.025
  YS02001884           JUNCTION        0.67          0.816        0.054
  YS02001887           JUNCTION        0.71          0.843        0.107
  YS02001890           JUNCTION        0.73          0.760        0.000
  YS02001895           JUNCTION        0.65          0.653        0.097
  YS02001898           JUNCTION        0.64          0.680        0.060
  YS02001901           JUNCTION        0.70          0.797        0.073
  YS02001904           JUNCTION        0.69          0.720        0.130
  YS02001907           JUNCTION        0.96          0.950        0.000
  YS02001910           JUNCTION        0.76          1.100        0.000
  YS02001915           JUNCTION        0.66          0.961        0.039
  YS02001918           JUNCTION        0.57          0.810        0.000
  YS02001920           JUNCTION        0.58          1.140        0.000
  YS02001923           JUNCTION        0.21          0.820        0.000
  YS02001926           JUNCTION        0.24          0.900        0.000
  YS02001929           JUNCTION        0.03          0.780        0.000
  YS02006553           JUNCTION        0.98          0.998        0.192
  YS02006556           JUNCTION        0.85          0.961        0.389
  YS02006558           JUNCTION        0.85          0.950        0.450
  YS02006561           JUNCTION        0.53          0.229        0.921
  YS02163301           JUNCTION        1.30          0.954        0.076
  YS02163601           JUNCTION        1.35          1.080        0.000
  YS02164001           JUNCTION        1.28          1.100        0.000
  
  
  *********************
  Node Flooding Summary
  *********************
  
  Flooding refers to all water that overflows a node, whether it ponds or not.
  --------------------------------------------------------------------------
                                                             Total   Maximum
                                 Maximum   Time of Max       Flood    Ponded
                        Hours       Rate    Occurrence      Volume     Depth
  Node                 Flooded       LPS   days hr:min    10^6 ltr    Meters
  --------------------------------------------------------------------------
  WS02006235              0.01     16.49      0  03:49       0.000     0.000
  WS02006238              0.01     12.73      0  03:49       0.000     0.000
  WS02006239              0.01      5.25      0  03:49       0.000     0.000
  WS02006240              0.01     13.28      0  03:49       0.000     0.000
  WS02006242              0.01     22.48      0  02:09       0.000     0.000
  WS02006248              0.01     23.53      0  03:49       0.000     0.000
  WS02006249              1.08    105.78      0  01:33       0.261     0.000
  WS02006252              0.01    245.63      0  00:00       0.000     0.000
  WS02006256              1.39    293.19      0  00:00       0.497     0.000
  YS02001580              0.01     85.08      0  01:33       0.000     0.000
  YS02001583              0.01    188.11      0  01:33       0.000     0.000
  YS02001586              0.71    557.31      0  01:42       0.681     0.000
  YS02001600              0.01      0.48      0  01:33       0.000     0.000
  YS02001601              0.96   1513.85      0  01:40       2.126     0.000
  YS02001602              0.86     62.02      0  02:06       0.176     0.000
  YS02001605              0.01      4.51      0  01:33       0.000     0.000
  YS02001610              0.76    879.35      0  01:42       1.169     0.000
  YS02001616              0.01     38.91      0  01:33       0.000     0.000
  YS02001619              0.01     86.70      0  01:33       0.000     0.000
  YS02001625              0.73   1433.72      0  01:43       1.840     0.000
  YS02001629              0.18    410.10      0  01:38       0.127     0.000
  YS02001633              0.01      2.02      0  01:35       0.000     0.000
  YS02001641              0.01      0.78      0  02:28       0.000     0.000
  YS02001644              0.29   1325.58      0  01:39       0.788     0.000
  YS02001649              0.01    195.02      0  01:36       0.004     0.000
  YS02001652              0.01      1.45      0  01:36       0.000     0.000
  YS02001655              0.01     58.76      0  01:36       0.000     0.000
  YS02001658              0.01     33.09      0  01:36       0.000     0.000
  YS02001661              0.01     86.81      0  01:36       0.000     0.000
  YS02001664              0.01    202.86      0  01:36       0.000     0.000
  YS02001748              0.01    440.04      0  01:36       0.001     0.000
  YS02001751              0.01     31.39      0  01:36       0.000     0.000
  YS02001754              0.01     64.33      0  01:36       0.000     0.000
  YS02001757              0.01     94.38      0  01:36       0.001     0.000
  YS02001762              0.01     27.20      0  01:36       0.000     0.000
  YS02001765              0.01     18.75      0  01:36       0.000     0.000
  YS02001767              0.01     10.69      0  01:36       0.000     0.000
  YS02001770              0.02    174.01      0  01:35       0.005     0.000
  YS02001779              0.26    767.55      0  01:39       0.407     0.000
  YS02001890              0.24    505.40      0  01:38       0.221     0.000
  YS02001907              0.50   2408.80      0  01:40       2.119     0.000
  YS02001910              0.01     98.04      0  01:34       0.000     0.000
  YS02001918              0.01    215.71      0  01:35       0.003     0.000
  YS02001920              0.01     22.36      0  01:35       0.000     0.000
  YS02001923              0.01    198.32      0  01:35       0.001     0.000
  YS02001926              0.01    543.38      0  01:35       0.004     0.000
  YS02001929              0.01    671.79      0  01:35       0.002     0.000
  YS02163601              0.01      6.88      0  01:35       0.000     0.000
  YS02164001              0.01      1.60      0  02:28       0.000     0.000
  
  
  **********************
  Storage Volume Summary
  **********************
  
  ------------------------------------------------------------------------------------------------
                         Average    Avg   Evap  Exfil     Maximum    Max    Time of Max    Maximum
                          Volume   Pcnt   Pcnt   Pcnt      Volume   Pcnt     Occurrence    Outflow
  Storage Unit           1000 m³   Full   Loss   Loss     1000 m³   Full    days hr:min        LPS
  ------------------------------------------------------------------------------------------------
  CC-storage               2.503   39.0    0.0    0.0       4.922   76.8       0  02:22    1783.53
  JK-storage               0.154   53.0    0.0    0.0       0.212   72.9       0  01:35    2300.00
  
  
  ***********************
  Outfall Loading Summary
  ***********************
  
  -----------------------------------------------------------
                         Flow       Avg       Max       Total
                         Freq      Flow      Flow      Volume
  Outfall Node           Pcnt       LPS       LPS    10^6 ltr
  -----------------------------------------------------------
  CC-1                  20.78    683.00    683.00       4.306
  CC-2                  22.22    683.00    683.00       4.106
  JK-1                   9.76   1000.00   1000.00       2.215
  JK-2                   4.73   1000.00   1000.00       1.287
  WSC                   99.96    301.87    556.92       6.725
  -----------------------------------------------------------
  System                31.49   3667.87   3921.80      18.638
  
  
  ********************
  Link Flow Summary
  ********************
  
  -----------------------------------------------------------------------------
                                 Maximum  Time of Max   Maximum    Max/    Max/
                                  |Flow|   Occurrence   |Veloc|    Full    Full
  Link                 Type          LPS  days hr:min     m/sec    Flow   Depth
  -----------------------------------------------------------------------------
  1                    CONDUIT    556.92     0  02:10      2.83    0.19    0.30
  WS02003060WS02003069 CONDUIT    555.61     0  02:07      1.64    0.22    0.34
  WS02003066WSF200     CONDUIT    538.96     0  02:07      2.85    0.09    0.22
  WS02003067WS02003066 CONDUIT    538.89     0  02:07      1.21    0.17    0.42
  WS02003069WS02003072 CONDUIT    555.61     0  02:08      1.37    0.27    0.39
  WS02003072WS02003073 CONDUIT    555.43     0  02:09      1.44    1.20    0.37
  WS02004401WS02004402 CONDUIT    541.49     0  03:00      0.98    0.65    0.89
  WS02004402WS02004403 CONDUIT    541.21     0  02:59      0.97    0.78    0.91
  WS02004403WS02004404 CONDUIT    558.91     0  02:06      0.92    0.40    0.96
  WS02004404WS02004405 CONDUIT    604.04     0  02:04      1.08    5.92    0.98
  WS02004405WS02004406 CONDUIT    546.37     0  02:05      0.99    1.08    0.96
  WS02004406WS02004407 CONDUIT    540.69     0  02:06      1.04    0.24    0.63
  WS02004407WS02004409 CONDUIT    540.05     0  02:05      1.75    0.19    0.48
  WS02004409WS02004410 CONDUIT    539.95     0  02:05      1.07    0.70    0.68
  WS02004410WS02004411 CONDUIT    539.47     0  02:05      0.99    0.74    0.69
  WS02004411WS02004412 CONDUIT    539.40     0  02:06      0.96    0.77    0.70
  WS02004412WS02004413 CONDUIT    539.12     0  02:06      0.82    0.36    0.78
  WS02004413WS02003067 CONDUIT    538.78     0  02:06      1.11    0.23    0.59
  WS02006109WS02006110 CONDUIT    555.99     0  02:46      1.11    1.07    1.00
  WS02006110WS02006113 CONDUIT    573.94     0  01:34      1.38    0.52    0.79
  WS02006111WS02006112 CONDUIT    543.42     0  02:48      1.81    0.26    0.67
  WS02006112WS02006115 CONDUIT    551.16     0  02:41      0.87    0.33    0.88
  WS02006113WS02006111 CONDUIT    561.87     0  03:35      2.47    0.67    0.46
  WS02006115WS02006116 CONDUIT    539.86     0  02:52      1.18    0.69    0.79
  WS02006116WS02004401 CONDUIT    538.99     0  02:49      1.00    0.74    0.87
  WS02006228WS02006109 CONDUIT    554.54     0  01:46      1.10    2.42    1.00
  WS02006229WS02006228 CONDUIT    554.42     0  01:46      1.14    1.84    1.00
  WS02006230WS02006229 CONDUIT    554.21     0  01:46      1.44   12.33    1.00
  WS02006231WS02006230 CONDUIT    608.47     0  03:49      1.67    9.23    1.00
  WS02006232WS02006231 CONDUIT    630.03     0  03:49      1.65    1.32    1.00
  WS02006234WS02006232 CONDUIT    624.59     0  03:49      1.62    1.26    1.00
  WS02006235WS02006234 CONDUIT    597.65     0  03:49      1.55    6.31    1.00
  WS02006238WS02006235 CONDUIT    427.15     0  02:15      1.46    0.95    1.00
  WS02006239WS02006238 CONDUIT    424.48     0  02:15      1.21    1.36    1.00
  WS02006240WS02006239 CONDUIT    423.58     0  02:15      1.32    1.33    1.00
  WS02006242WS02006240 CONDUIT    421.57     0  02:15      1.18    1.67    1.00
  WS02006243WS02006242 CONDUIT    421.07     0  02:15      1.43    0.90    1.00
  WS02006245WS02006243 CONDUIT    421.96     0  03:30      1.45    1.25    1.00
  WS02006247WS02006245 CONDUIT    422.37     0  03:30      1.43    3.35    1.00
  WS02006248WS02006247 CONDUIT    421.73     0  03:30      1.45    0.92    1.00
  WS02006249WS02006248 CONDUIT    422.74     0  03:30      1.38    2.32    1.00
  WS02006251WS02006249 CONDUIT    459.02     0  00:00      1.99    1.32    1.00
  WS02006252WS02006251 CONDUIT    411.11     0  01:33     24.61    1.51    1.00
  WS02006256WS02006235 CONDUIT    288.91     0  00:00      4.23    3.06    1.00
  WSF200WS02003060     CONDUIT    539.12     0  02:07      2.06    0.12    0.28
  YS02001580YS02001583 CONDUIT    144.40     0  01:32      0.84    0.56    1.00
  YS02001583YS02001586 CONDUIT    194.19     0  01:32      0.89    0.29    1.00
  YS02001586YS02001590 CONDUIT    318.26     0  01:49      1.27    0.56    1.00
  YS02001590YS02001593 CONDUIT    318.17     0  01:49      1.13    2.00    1.00
  YS02001593YS02001596 CONDUIT    318.03     0  02:05      1.73    0.50    1.00
  YS02001596YS02001600 CONDUIT    318.15     0  02:11      1.23    0.62    1.00
  YS02001600YS02001601 CONDUIT    318.20     0  01:49      1.13    0.55    1.00
  YS02001601YS02001602 CONDUIT    573.56     0  01:32      2.03    2.07    1.00
  YS02001602YS02001605 CONDUIT    573.49     0  01:32      2.03   12.14    1.00
  YS02001605YS02001607 CONDUIT    573.48     0  01:32      2.03    3.14    1.00
  YS02001607YS02001610 CONDUIT    543.97     0  01:33      0.71    0.52    1.00
  YS02001610YS02001613 CONDUIT    545.86     0  01:33      0.70    0.63    1.00
  YS02001613YS02001616 CONDUIT    548.92     0  01:33      0.70    0.47    1.00
  YS02001616YS02001619 CONDUIT    543.47     0  01:42      0.69    0.94    1.00
  YS02001619YS02001622 CONDUIT   1014.18     0  01:41      1.29    1.49    1.00
  YS02001622YS02001625 CONDUIT   1014.85     0  01:41      1.29    0.54    1.00
  YS02001625YS02001629 CONDUIT    924.82     0  01:33      1.18    0.44    1.00
  YS02001629YS02163301 CONDUIT    910.76     0  01:34      1.16    1.12    1.00
  YS02001633YS02163601 CONDUIT   1439.00     0  01:34      1.83    1.51    1.00
  YS02001641YS02001644 CONDUIT   1436.21     0  01:34      1.83    4.64    1.00
  YS02001644YS02001647 CONDUIT   1947.03     0  01:34      2.48    1.14    1.00
  YS02001647YS02001649 CONDUIT   1920.33     0  01:34      2.45    1.01    1.00
  YS02001649YS02001757 CONDUIT   2216.22     0  01:35      2.82    1.34    1.00
  YS02001652YS02001649 CONDUIT   1077.27     0  01:37      1.37    0.53    1.00
  YS02001655YS02001652 CONDUIT   1077.09     0  01:37      1.54    0.52    1.00
  YS02001658YS02001655 CONDUIT   1076.93     0  01:37      2.04    0.46    1.00
  YS02001661YS02001658 CONDUIT   1076.99     0  01:37      2.44    0.42    1.00
  YS02001664YS02001661 CONDUIT   1074.10     0  01:37      2.55    0.34    1.00
  YS02001745YS02001748 CONDUIT    685.79     0  01:39      2.41    0.26    1.00
  YS02001748YS02001751 CONDUIT    686.73     0  01:39      1.88    0.35    1.00
  YS02001751YS02001754 CONDUIT    686.77     0  01:39      1.59    0.33    1.00
  YS02001754YS02001757 CONDUIT    686.99     0  01:39      0.87    0.28    1.00
  YS02001757CaochengTiaoxuchi CONDUIT   3629.73     0  01:37      4.81    1.57    1.00
  YS02001759YS02001757 CONDUIT   1560.19     0  01:36      1.99    1.11    1.00
  YS02001762YS02001759 CONDUIT    821.69     0  01:36      1.05    0.95    1.00
  YS02001765YS02001762 CONDUIT    829.60     0  01:36      1.06    0.78    1.00
  YS02001767YS02001765 CONDUIT    834.38     0  01:36      1.06    1.05    1.00
  YS02001770YS02001767 CONDUIT    836.55     0  01:36      1.07    3.31    1.00
  YS02001774YS02001770 CONDUIT    767.42     0  01:39      0.98    0.49    1.00
  YS02001779YS02001774 CONDUIT    767.56     0  01:39      0.98    0.39    1.00
  YS02001783YS02001784 CONDUIT   1170.61     0  01:37      2.33    1.61    1.00
  YS02001784YS02001785 CONDUIT   1171.81     0  01:37      2.33    2.73    1.00
  YS02001786YS02001788 CONDUIT   1171.85     0  01:37      2.49    2.26    0.89
  YS02001788YS02001790 CONDUIT   1182.81     0  01:36      2.72    0.87    0.84
  YS02001790YS02001791 CONDUIT   1284.52     0  01:36      3.43    1.40    0.70
  YS02001791YS02001793 CONDUIT   1264.83     0  01:36      6.77    0.54    0.45
  YS02001793JiankangQianchi CONDUIT   1311.16     0  01:45      2.60    0.10    0.65
  YS02001882YS02001884 CONDUIT    102.76     0  01:33      0.18    0.12    1.00
  YS02001884YS02001887 CONDUIT    137.35     0  01:33      0.17    0.18    1.00
  YS02001887YS02001890 CONDUIT   1022.55     0  01:38      1.30    1.75    1.00
  YS02001890YS02001895 CONDUIT    573.43     0  01:34      0.73    0.27    1.00
  YS02001895YS02001898 CONDUIT    579.61     0  01:34      0.74    1.01    1.00
  YS02001898YS02001901 CONDUIT    586.15     0  01:34      0.75    0.38    1.00
  YS02001901YS02001904 CONDUIT    588.08     0  01:34      0.75    0.91    1.00
  YS02001904YS02001907 CONDUIT    585.72     0  01:34      0.75    0.21    1.00
  YS02001907YS02006553 CONDUIT    793.51     0  02:05      0.88    0.93    1.00
  YS02001910YS02001907 CONDUIT   1727.91     0  01:40      2.20    0.97    1.00
  YS02001915YS02001910 CONDUIT   1727.49     0  01:40      2.20    0.86    1.00
  YS02001918YS02001915 CONDUIT    647.11     0  01:34      0.84    0.36    1.00
  YS02001920YS02001918 CONDUIT    630.64     0  01:34      0.80    0.61    1.00
  YS02001923YS02001920 CONDUIT    645.58     0  01:34      0.88    0.29    1.00
  YS02001926YS02001923 CONDUIT    871.90     0  01:34      1.33    1.25    1.00
  YS02001929YS02001926 CONDUIT    590.17     0  01:35      1.22    0.28    1.00
  YS02006553YS02006556 CONDUIT    793.62     0  02:05      1.01    0.68    1.00
  YS02006556YS02006558 CONDUIT    792.59     0  02:05      1.01    0.63    1.00
  YS02006558YS02006561 CONDUIT   1176.47     0  01:34      4.16    2.60    1.00
  YS02006561YS02001783 CONDUIT   1170.61     0  01:37      2.33    0.61    1.00
  YS02163301YS02001633 CONDUIT    911.10     0  01:34      1.16    0.86    1.00
  YS02163601YS02164001 CONDUIT   1438.53     0  01:34      1.83    1.27    1.00
  YS02164001YS02001641 CONDUIT   1435.84     0  01:34      1.83    1.96    1.00
  CC-R1                PUMP       683.00     0  00:00              1.00
  CC-R2                PUMP       683.00     0  00:00              1.00
  CC-S1                PUMP       200.00     0  00:00              1.00
  CC-S2                PUMP       200.00     0  00:00              1.00
  JK-R1                PUMP      1000.00     0  00:00              1.00
  JK-R2                PUMP      1000.00     0  00:00              1.00
  JK-S                 PUMP       300.00     0  00:00              1.00
  
  
  ***************************
  Flow Classification Summary
  ***************************
  
  -------------------------------------------------------------------------------------
                      Adjusted    ---------- Fraction of Time in Flow Class ---------- 
                       /Actual         Up    Down  Sub   Sup   Up    Down  Norm  Inlet 
  Conduit               Length    Dry  Dry   Dry   Crit  Crit  Crit  Crit  Ltd   Ctrl  
  -------------------------------------------------------------------------------------
  1                       1.00   0.00  0.00  0.00  0.00  1.00  0.00  0.00  0.47  0.00
  WS02003060WS02003069    1.00   0.00  0.00  0.00  0.99  0.01  0.00  0.00  0.59  0.00
  WS02003066WSF200        1.00   0.13  0.00  0.00  0.00  0.87  0.00  0.00  0.74  0.00
  WS02003067WS02003066    1.00   0.10  0.02  0.00  0.88  0.00  0.00  0.00  0.00  0.00
  WS02003069WS02003072    1.00   0.00  0.00  0.00  0.99  0.01  0.00  0.00  0.67  0.00
  WS02003072WS02003073    1.00   0.00  0.00  0.00  0.00  0.00  0.00  1.00  0.00  0.00
  WS02004401WS02004402    1.00   0.02  0.00  0.00  0.98  0.00  0.00  0.00  0.00  0.00
  WS02004402WS02004403    1.00   0.02  0.00  0.00  0.97  0.00  0.00  0.00  0.00  0.00
  WS02004403WS02004404    1.00   0.00  0.03  0.00  0.97  0.00  0.00  0.00  0.00  0.00
  WS02004404WS02004405    1.00   0.00  0.00  0.00  1.00  0.00  0.00  0.00  0.01  0.00
  WS02004405WS02004406    1.00   0.00  0.00  0.00  1.00  0.00  0.00  0.00  0.00  0.00
  WS02004406WS02004407    1.00   0.00  0.05  0.00  0.95  0.00  0.00  0.00  0.00  0.00
  WS02004407WS02004409    1.00   0.05  0.00  0.00  0.94  0.01  0.00  0.00  0.94  0.00
  WS02004409WS02004410    1.00   0.05  0.00  0.00  0.95  0.00  0.00  0.00  0.03  0.00
  WS02004410WS02004411    1.00   0.05  0.00  0.00  0.95  0.00  0.00  0.00  0.01  0.00
  WS02004411WS02004412    1.00   0.05  0.00  0.00  0.95  0.00  0.00  0.00  0.00  0.00
  WS02004412WS02004413    1.00   0.05  0.00  0.00  0.94  0.00  0.00  0.00  0.01  0.00
  WS02004413WS02003067    1.00   0.06  0.04  0.00  0.00  0.00  0.90  0.00  0.00  0.00
  WS02006109WS02006110    1.00   0.00  0.01  0.00  0.98  0.00  0.01  0.00  0.00  0.00
  WS02006110WS02006113    1.00   0.01  0.01  0.00  0.98  0.00  0.00  0.00  0.00  0.00
  WS02006111WS02006112    1.00   0.02  0.00  0.00  0.98  0.00  0.00  0.00  0.98  0.00
  WS02006112WS02006115    1.00   0.02  0.00  0.00  0.97  0.00  0.00  0.00  0.00  0.00
  WS02006113WS02006111    1.00   0.02  0.00  0.00  0.00  0.98  0.00  0.00  0.16  0.00
  WS02006115WS02006116    1.00   0.02  0.00  0.00  0.97  0.00  0.00  0.01  0.00  0.00
  WS02006116WS02004401    1.00   0.02  0.00  0.00  0.98  0.00  0.00  0.00  0.00  0.00
  WS02006228WS02006109    1.00   0.00  0.00  0.00  1.00  0.00  0.00  0.00  0.00  0.00
  WS02006229WS02006228    1.00   0.00  0.00  0.00  0.99  0.00  0.00  0.01  0.00  0.00
  WS02006230WS02006229    1.00   0.00  0.00  0.00  0.99  0.00  0.00  0.01  0.02  0.00
  WS02006231WS02006230    1.00   0.00  0.00  0.00  0.34  0.00  0.66  0.00  0.00  0.00
  WS02006232WS02006231    1.00   0.00  0.00  0.00  0.99  0.00  0.01  0.00  0.00  0.00
  WS02006234WS02006232    1.00   0.00  0.00  0.00  1.00  0.00  0.00  0.00  0.13  0.00
  WS02006235WS02006234    1.00   0.00  0.00  0.00  0.82  0.00  0.18  0.00  0.00  0.00
  WS02006238WS02006235    1.00   0.00  0.00  0.00  1.00  0.00  0.00  0.00  0.00  0.00
  WS02006239WS02006238    1.00   0.00  0.00  0.00  1.00  0.00  0.00  0.00  0.25  0.00
  WS02006240WS02006239    1.00   0.00  0.00  0.00  0.64  0.00  0.00  0.36  0.01  0.00
  WS02006242WS02006240    1.00   0.00  0.00  0.00  0.99  0.00  0.01  0.00  0.00  0.00
  WS02006243WS02006242    1.00   0.00  0.00  0.00  0.99  0.00  0.00  0.01  0.42  0.00
  WS02006245WS02006243    1.00   0.00  0.00  0.00  0.74  0.00  0.00  0.26  0.00  0.00
  WS02006247WS02006245    1.00   0.00  0.00  0.00  0.98  0.00  0.00  0.01  0.00  0.00
  WS02006248WS02006247    1.00   0.00  0.00  0.00  0.99  0.00  0.00  0.01  0.19  0.00
  WS02006249WS02006248    1.00   0.00  0.00  0.00  0.61  0.00  0.39  0.00  0.00  0.00
  WS02006251WS02006249    1.00   0.00  0.00  0.00  1.00  0.00  0.00  0.00  0.42  0.00
  WS02006252WS02006251    1.00   0.00  0.41  0.00  0.14  0.00  0.46  0.00  0.00  0.00
  WS02006256WS02006235    1.00   0.00  0.00  0.00  1.00  0.00  0.00  0.00  0.00  0.00
  WSF200WS02003060        1.00   0.00  0.13  0.00  0.26  0.61  0.00  0.00  0.35  0.00
  YS02001580YS02001583    1.00   0.19  0.58  0.00  0.23  0.00  0.00  0.00  0.67  0.00
  YS02001583YS02001586    1.00   0.41  0.30  0.00  0.29  0.00  0.00  0.00  0.67  0.00
  YS02001586YS02001590    1.00   0.13  0.00  0.00  0.44  0.04  0.00  0.40  0.33  0.00
  YS02001590YS02001593    1.00   0.13  0.01  0.00  0.16  0.00  0.71  0.00  0.00  0.00
  YS02001593YS02001596    1.00   0.13  0.00  0.00  0.18  0.01  0.00  0.68  0.02  0.00
  YS02001596YS02001600    1.00   0.13  0.00  0.00  0.23  0.01  0.00  0.63  0.03  0.00
  YS02001600YS02001601    1.00   0.13  0.01  0.00  0.86  0.00  0.00  0.00  0.58  0.00
  YS02001601YS02001602    1.00   0.13  0.01  0.00  0.87  0.00  0.00  0.00  0.00  0.00
  YS02001602YS02001605    1.00   0.13  0.00  0.00  0.87  0.00  0.00  0.00  0.00  0.00
  YS02001605YS02001607    1.00   0.13  0.00  0.00  0.87  0.00  0.00  0.00  0.00  0.00
  YS02001607YS02001610    1.00   0.13  0.01  0.00  0.86  0.00  0.00  0.00  0.01  0.00
  YS02001610YS02001613    1.00   0.13  0.00  0.00  0.87  0.00  0.00  0.00  0.00  0.00
  YS02001613YS02001616    1.00   0.13  0.00  0.00  0.87  0.00  0.00  0.00  0.00  0.00
  YS02001616YS02001619    1.00   0.13  0.00  0.00  0.87  0.00  0.00  0.00  0.00  0.00
  YS02001619YS02001622    1.00   0.13  0.00  0.00  0.87  0.00  0.00  0.00  0.29  0.00
  YS02001622YS02001625    1.00   0.13  0.00  0.00  0.87  0.00  0.00  0.00  0.03  0.00
  YS02001625YS02001629    1.00   0.13  0.04  0.00  0.20  0.00  0.63  0.00  0.00  0.00
  YS02001629YS02163301    1.00   0.14  0.01  0.00  0.85  0.00  0.00  0.00  0.00  0.00
  YS02001633YS02163601    1.00   0.00  0.01  0.00  0.99  0.00  0.00  0.00  0.14  0.00
  YS02001641YS02001644    1.00   0.00  0.01  0.00  0.99  0.00  0.00  0.00  0.00  0.00
  YS02001644YS02001647    1.00   0.00  0.16  0.00  0.84  0.00  0.00  0.00  0.00  0.00
  YS02001647YS02001649    1.00   0.00  0.16  0.00  0.58  0.27  0.00  0.00  0.56  0.00
  YS02001649YS02001757    1.00   0.00  0.00  0.00  0.85  0.15  0.00  0.00  0.39  0.00
  YS02001652YS02001649    1.00   0.00  0.00  0.00  0.97  0.03  0.00  0.00  0.71  0.00
  YS02001655YS02001652    1.00   0.00  0.00  0.00  0.23  0.01  0.00  0.77  0.04  0.00
  YS02001658YS02001655    1.00   0.00  0.14  0.00  0.71  0.15  0.00  0.00  0.65  0.00
  YS02001661YS02001658    1.00   0.14  0.00  0.00  0.55  0.31  0.00  0.00  0.69  0.00
  YS02001664YS02001661    1.00   0.13  0.00  0.00  0.77  0.10  0.00  0.00  0.84  0.00
  YS02001745YS02001748    1.00   0.00  0.00  0.00  0.15  0.01  0.00  0.84  0.06  0.00
  YS02001748YS02001751    1.00   0.00  0.00  0.00  0.87  0.13  0.00  0.00  0.76  0.00
  YS02001751YS02001754    1.00   0.00  0.00  0.00  0.21  0.01  0.00  0.79  0.02  0.00
  YS02001754YS02001757    1.00   0.00  0.00  0.00  1.00  0.00  0.00  0.00  0.77  0.00
  YS02001757CaochengTiaoxuchi    1.00   0.00  0.00  0.00  0.98  0.02  0.00  0.00  0.63  0.00
  YS02001759YS02001757    1.00   0.00  0.00  0.00  0.98  0.02  0.00  0.00  0.54  0.00
  YS02001762YS02001759    1.00   0.00  0.00  0.00  1.00  0.00  0.00  0.00  0.03  0.00
  YS02001765YS02001762    1.00   0.00  0.00  0.00  1.00  0.00  0.00  0.00  0.65  0.00
  YS02001767YS02001765    1.00   0.00  0.00  0.00  1.00  0.00  0.00  0.00  0.01  0.00
  YS02001770YS02001767    1.00   0.00  0.00  0.00  1.00  0.00  0.00  0.00  0.00  0.00
  YS02001774YS02001770    1.00   0.00  0.13  0.00  0.71  0.00  0.16  0.00  0.02  0.00
  YS02001779YS02001774    1.00   0.00  0.00  0.00  1.00  0.00  0.00  0.00  0.75  0.00
  YS02001783YS02001784    1.00   0.00  0.16  0.00  0.84  0.00  0.00  0.00  0.55  0.00
  YS02001784YS02001785    1.00   0.00  0.00  0.00  1.00  0.00  0.00  0.00  0.15  0.00
  YS02001786YS02001788    1.00   0.00  0.00  0.00  0.79  0.21  0.00  0.00  0.00  0.00
  YS02001788YS02001790    1.00   0.00  0.00  0.00  0.21  0.79  0.00  0.00  0.78  0.00
  YS02001790YS02001791    1.00   0.00  0.00  0.00  0.01  0.99  0.00  0.00  0.16  0.00
  YS02001791YS02001793    1.00   0.00  0.00  0.00  0.00  1.00  0.00  0.00  0.01  0.00
  YS02001793JiankangQianchi    1.00   0.00  0.00  0.00  0.95  0.05  0.00  0.00  0.97  0.00
  YS02001882YS02001884    1.00   0.15  0.01  0.00  0.85  0.00  0.00  0.00  0.00  0.00
  YS02001884YS02001887    1.00   0.06  0.05  0.00  0.89  0.00  0.00  0.00  0.00  0.00
  YS02001887YS02001890    1.00   0.00  0.00  0.00  0.97  0.00  0.03  0.00  0.00  0.00
  YS02001890YS02001895    1.00   0.00  0.15  0.00  0.85  0.00  0.00  0.00  0.00  0.00
  YS02001895YS02001898    1.00   0.15  0.00  0.00  0.83  0.00  0.01  0.00  0.00  0.00
  YS02001898YS02001901    1.00   0.16  0.00  0.00  0.84  0.00  0.00  0.00  0.00  0.00
  YS02001901YS02001904    1.00   0.16  0.00  0.00  0.84  0.00  0.00  0.00  0.00  0.00
  YS02001904YS02001907    1.00   0.00  0.15  0.00  0.84  0.00  0.00  0.00  0.00  0.00
  YS02001907YS02006553    1.00   0.00  0.02  0.00  0.98  0.00  0.00  0.00  0.00  0.00
  YS02001910YS02001907    1.00   0.00  0.00  0.00  0.97  0.00  0.00  0.03  0.12  0.00
  YS02001915YS02001910    1.00   0.00  0.00  0.00  0.97  0.03  0.00  0.00  0.13  0.00
  YS02001918YS02001915    1.00   0.00  0.01  0.00  0.98  0.02  0.00  0.00  0.72  0.00
  YS02001920YS02001918    1.00   0.00  0.01  0.00  0.99  0.00  0.00  0.00  0.00  0.00
  YS02001923YS02001920    1.00   0.00  0.00  0.00  1.00  0.00  0.00  0.00  0.90  0.00
  YS02001926YS02001923    1.00   0.00  0.07  0.00  0.08  0.00  0.84  0.00  0.00  0.00
  YS02001929YS02001926    1.00   0.00  0.13  0.00  0.87  0.00  0.00  0.00  0.80  0.00
  YS02006553YS02006556    1.00   0.01  0.00  0.00  0.99  0.00  0.00  0.00  0.03  0.00
  YS02006556YS02006558    1.00   0.00  0.00  0.00  1.00  0.00  0.00  0.00  0.00  0.00
  YS02006558YS02006561    1.00   0.16  0.00  0.00  0.08  0.76  0.00  0.00  0.18  0.00
  YS02006561YS02001783    1.00   0.16  0.00  0.00  0.11  0.72  0.00  0.00  0.66  0.00
  YS02163301YS02001633    1.00   0.00  0.14  0.00  0.86  0.00  0.00  0.00  0.00  0.00
  YS02163601YS02164001    1.00   0.00  0.08  0.00  0.92  0.00  0.00  0.00  0.00  0.00
  YS02164001YS02001641    1.00   0.01  0.07  0.00  0.92  0.00  0.00  0.00  0.05  0.00
  
  
  *************************
  Conduit Surcharge Summary
  *************************
  
  ----------------------------------------------------------------------------
                                                           Hours        Hours 
                         --------- Hours Full --------   Above Full   Capacity
  Conduit                Both Ends  Upstream  Dnstream   Normal Flow   Limited
  ----------------------------------------------------------------------------
  WS02003072WS02003073        0.01      0.01      0.01      1.44         0.01
  WS02004403WS02004404        0.01      0.01      0.02      0.01         0.01
  WS02004404WS02004405        0.01      0.02      0.01      4.50         0.01
  WS02004405WS02004406        0.01      0.01      0.01      0.84         0.01
  WS02006109WS02006110        0.90      0.90      2.45      1.02         0.01
  WS02006110WS02006113        0.01      0.01      2.39      0.01         0.01
  WS02006111WS02006112        0.01      0.01      3.24      0.01         0.01
  WS02006112WS02006115        0.01      0.01      1.07      0.01         0.01
  WS02006228WS02006109        2.33      2.45      2.33      3.57         2.33
  WS02006229WS02006228        2.31      2.34      2.31      3.01         2.30
  WS02006230WS02006229        2.62      2.90      2.62      4.77         2.62
  WS02006231WS02006230        0.92      0.93      1.10      4.62         0.01
  WS02006232WS02006231        1.05      1.05      2.48      1.13         0.01
  WS02006234WS02006232        2.26      2.26      2.48      1.11         1.10
  WS02006235WS02006234        1.47      1.48      2.32      4.53         0.02
  WS02006238WS02006235        2.35      2.35      2.49      0.01         0.01
  WS02006239WS02006238        2.40      2.46      2.41      2.70         2.14
  WS02006240WS02006239        2.31      2.35      2.33      2.69         1.99
  WS02006242WS02006240        2.33      2.33      2.60      3.01         0.01
  WS02006243WS02006242        2.35      2.35      2.47      0.01         0.04
  WS02006245WS02006243        2.32      2.34      2.33      1.81         1.46
  WS02006247WS02006245        2.33      2.38      2.33      4.38         2.31
  WS02006248WS02006247        2.32      2.32      2.36      0.01         0.05
  WS02006249WS02006248        2.30      2.30      2.34      4.37         0.01
  WS02006251WS02006249        2.33      2.34      2.34      2.84         2.25
  WS02006252WS02006251        2.91      2.91      2.91      2.92         0.01
  WS02006256WS02006235        4.53      4.58      5.96      1.39         0.01
  YS02001580YS02001583        0.86      0.86      0.94      0.01         0.01
  YS02001583YS02001586        0.87      0.87      1.05      0.01         0.01
  YS02001586YS02001590        1.06      1.06      1.14      0.01         0.01
  YS02001590YS02001593        1.14      1.14      1.16      1.22         0.01
  YS02001593YS02001596        1.15      1.15      1.27      0.01         0.01
  YS02001596YS02001600        1.32      1.32      1.45      0.01         0.01
  YS02001600YS02001601        1.52      1.52      1.73      0.01         0.01
  YS02001601YS02001602        1.65      1.65      1.75      1.44         0.01
  YS02001602YS02001605        1.62      1.62      1.65      2.39         0.01
  YS02001605YS02001607        1.59      1.62      1.59      1.70         1.59
  YS02001607YS02001610        1.14      1.14      1.17      0.01         0.01
  YS02001610YS02001613        1.14      1.14      1.17      0.01         0.01
  YS02001613YS02001616        1.09      1.09      1.14      0.01         0.01
  YS02001616YS02001619        1.08      1.08      1.09      0.01         0.05
  YS02001619YS02001622        1.08      1.08      1.08      1.11         0.99
  YS02001622YS02001625        1.08      1.08      1.28      0.01         0.01
  YS02001625YS02001629        1.01      1.01      1.28      0.01         0.01
  YS02001629YS02163301        1.28      1.28      1.30      0.02         0.14
  YS02001633YS02163601        1.32      1.32      1.35      0.34         0.31
  YS02001641YS02001644        1.25      1.28      1.25      1.77         1.24
  YS02001644YS02001647        1.02      1.02      1.25      0.04         0.01
  YS02001647YS02001649        1.02      1.02      1.19      0.01         0.01
  YS02001649YS02001757        1.19      1.19      1.27      0.05         0.05
  YS02001652YS02001649        0.98      0.98      1.19      0.01         0.01
  YS02001655YS02001652        0.68      0.68      0.94      0.01         0.01
  YS02001658YS02001655        0.35      0.35      0.68      0.01         0.01
  YS02001661YS02001658        0.11      0.11      0.35      0.01         0.01
  YS02001664YS02001661        0.01      0.01      0.15      0.01         0.01
  YS02001745YS02001748        0.01      0.01      0.25      0.01         0.01
  YS02001748YS02001751        0.31      0.31      0.49      0.01         0.01
  YS02001751YS02001754        0.49      0.49      0.83      0.01         0.01
  YS02001754YS02001757        0.89      0.89      1.27      0.01         0.01
  YS02001757CaochengTiaoxuchi        1.18      1.27      2.21      0.48         0.37
  YS02001759YS02001757        1.17      1.17      1.27      0.09         0.09
  YS02001762YS02001759        1.13      1.13      1.17      0.01         0.01
  YS02001765YS02001762        1.07      1.07      1.13      0.01         0.01
  YS02001767YS02001765        1.03      1.03      1.07      0.01         0.02
  YS02001770YS02001767        1.02      1.02      1.03      0.72         0.70
  YS02001774YS02001770        0.99      0.99      1.10      0.01         0.01
  YS02001779YS02001774        0.80      0.80      1.10      0.01         0.01
  YS02001783YS02001784        0.70      0.73      0.70      0.88         0.70
  YS02001784YS02001785        0.59      0.70      0.59      1.20         0.59
  YS02001786YS02001788        0.01      0.59      0.01      1.02         0.01
  YS02001790YS02001791        0.01      0.01      0.01      0.68         0.01
  YS02001793JiankangQianchi        0.01      0.01      7.50      0.01         0.01
  YS02001882YS02001884        0.66      0.66      0.67      0.01         0.01
  YS02001884YS02001887        0.70      0.70      0.71      0.01         0.01
  YS02001887YS02001890        0.73      0.73      0.74      0.20         0.01
  YS02001890YS02001895        0.65      0.65      0.76      0.01         0.01
  YS02001895YS02001898        0.64      0.64      0.65      0.01         0.01
  YS02001898YS02001901        0.65      0.65      0.70      0.01         0.01
  YS02001901YS02001904        0.69      0.69      0.70      0.01         0.01
  YS02001904YS02001907        0.69      0.69      0.99      0.01         0.01
  YS02001907YS02006553        1.22      1.22      1.30      0.01         0.01
  YS02001910YS02001907        0.76      0.76      0.96      0.01         0.01
  YS02001915YS02001910        0.66      0.66      0.76      0.01         0.01
  YS02001918YS02001915        0.57      0.57      0.66      0.01         0.01
  YS02001920YS02001918        0.57      0.57      0.58      0.01         0.01
  YS02001923YS02001920        0.51      0.51      0.58      0.01         0.01
  YS02001926YS02001923        0.21      0.21      0.24      0.01         0.01
  YS02001929YS02001926        0.03      0.03      0.24      0.01         0.01
  YS02006553YS02006556        0.85      0.85      0.98      0.01         0.01
  YS02006556YS02006558        0.91      0.91      1.02      0.01         0.01
  YS02006558YS02006561        0.61      0.85      0.61      1.14         0.61
  YS02006561YS02001783        0.53      0.53      0.73      0.01         0.01
  YS02163301YS02001633        1.30      1.30      1.33      0.01         0.01
  YS02163601YS02164001        1.28      1.28      1.35      0.04         0.01
  YS02164001YS02001641        1.27      1.28      1.28      0.88         0.84
  
  
  ***************
  Pumping Summary
  ***************
  
  ---------------------------------------------------------------------------------------------------------
                                                  Min       Avg       Max     Total     Power    % Time Off
                        Percent   Number of      Flow      Flow      Flow    Volume     Usage    Pump Curve
  Pump                 Utilized   Start-Ups       LPS       LPS       LPS  10^6 ltr     Kw-hr    Low   High
  ---------------------------------------------------------------------------------------------------------
  CC-R1                   21.89           2      0.00    683.00    683.00     4.305     81.83    0.0    8.6
  CC-R2                   20.87           3      0.00    683.00    683.00     4.105     77.88    0.0   13.8
  CC-S1                   52.96          10      0.00    200.00    200.00     3.050     18.03    0.0    0.0
  CC-S2                   38.56          11      0.00    200.00    200.00     2.221     12.80    0.0    0.0
  JK-R1                    7.69          15      0.00   1000.00   1000.00     2.215     21.32    0.0    0.0
  JK-R2                    4.47          11      0.00   1000.00   1000.00     1.288     11.46    0.0    0.0
  JK-S                    17.37          17      0.00    300.00    300.00     1.501     23.11    0.0    0.0
  

  Analysis begun on:  Wed Jan 15 10:23:53 2025
  Analysis ended on:  Wed Jan 15 10:23:55 2025
  Total elapsed time: 00:00:02