
  EPA STORM WATER MANAGEMENT MODEL - VERSION 5.2 (Build 5.2.4)
  PYSWMM TOOLKIT API - VERSION v1.0 (2023-11-27)
  ------------------------------------------------------------

  WARNING 04: minimum elevation drop used for Conduit WS02004404WS02004405
  WARNING 03: negative offset ignored for Link YS02001904YS02001907
  
  ****************
  Analysis Options
  ****************
  Flow Units ............... LPS
  Process Models:
    Rainfall/Runoff ........ YES
    RDII ................... NO
    Snowmelt ............... NO
    Groundwater ............ NO
    Flow Routing ........... YES
    Ponding Allowed ........ NO
    Water Quality .......... NO
  Infiltration Method ...... HORTON
  Flow Routing Method ...... DYNWAVE
  Surcharge Method ......... EXTRAN
  Starting Date ............ 08/28/2015 08:00:00
  Ending Date .............. 08/28/2015 16:00:00
  Antecedent Dry Days ...... 8.0
  Report Time Step ......... 00:01:00
  Wet Time Step ............ 00:01:00
  Dry Time Step ............ 00:01:00
  Routing Time Step ........ 30.00 sec
  Variable Time Step ....... YES
  Maximum Trials ........... 8
  Number of Threads ........ 4
  Head Tolerance ........... 0.001500 m
  
  
  **************************        Volume         Depth
  Runoff Quantity Continuity     hectare-m            mm
  **************************     ---------       -------
  Total Precipitation ......         2.375        71.587
  Evaporation Loss .........         0.000         0.000
  Infiltration Loss ........         0.101         3.041
  Surface Runoff ...........         2.241        67.565
  Final Storage ............         0.033         0.995
  Continuity Error (%) .....        -0.020
  
  
  **************************        Volume        Volume
  Flow Routing Continuity        hectare-m      10^6 ltr
  **************************     ---------     ---------
  Dry Weather Inflow .......         0.025         0.251
  Wet Weather Inflow .......         2.241        22.408
  Groundwater Inflow .......         0.000         0.000
  RDII Inflow ..............         0.000         0.000
  External Inflow ..........         0.083         0.834
  External Outflow .........         1.635        16.347
  Flooding Loss ............         0.779         7.785
  Evaporation Loss .........         0.000         0.000
  Exfiltration Loss ........         0.000         0.000
  Initial Stored Volume ....         0.243         2.431
  Final Stored Volume ......         0.187         1.869
  Continuity Error (%) .....        -0.301
  
  
  *************************
  Highest Continuity Errors
  *************************
  Node YS02001884 (5.32%)
  Node YS02001583 (-4.54%)
  
  
  ***************************
  Time-Step Critical Elements
  ***************************
  Link WS02006252WS02006251 (54.73%)
  Link WS02004404WS02004405 (11.59%)
  Link WS02006238WS02006235 (10.42%)
  Link YS02001791YS02001793 (6.79%)
  Link WS02006235WS02006234 (4.75%)
  
  
  ********************************
  Highest Flow Instability Indexes
  ********************************
  Link WS02006113WS02006111 (54)
  Link WS02006111WS02006112 (25)
  Link WS02006238WS02006235 (15)
  Link WS02006256WS02006235 (13)
  Link WS02006252WS02006251 (12)
  
  
  *********************************
  Most Frequent Nonconverging Nodes
  *********************************
  Node CC-1 (8.51%)
  Node CC-2 (8.51%)
  Node JK-1 (8.51%)
  Node JK-2 (8.51%)
  Node WSC (8.51%)
  
  
  *************************
  Routing Time Step Summary
  *************************
  Minimum Time Step           :     0.00 sec
  Average Time Step           :     1.72 sec
  Maximum Time Step           :     6.43 sec
  % of Time in Steady State   :     0.00
  Average Iterations per Step :     2.82
  % of Steps Not Converging   :     8.51
  Time Step Frequencies       :
     30.000 - 13.228 sec      :     0.00 %
     13.228 -  5.833 sec      :     7.45 %
      5.833 -  2.572 sec      :    12.20 %
      2.572 -  1.134 sec      :    20.46 %
      1.134 -  0.500 sec      :    59.90 %
  
  
  ***************************
  Subcatchment Runoff Summary
  ***************************
  
  ------------------------------------------------------------------------------------------------------------------------------
                            Total      Total      Total      Total     Imperv       Perv      Total       Total     Peak  Runoff
                           Precip      Runon       Evap      Infil     Runoff     Runoff     Runoff      Runoff   Runoff   Coeff
  Subcatchment                 mm         mm         mm         mm         mm         mm         mm    10^6 ltr      LPS
  ------------------------------------------------------------------------------------------------------------------------------
  sub60                     71.59       0.00       0.00       1.83      61.79       6.76      68.56        0.90   589.32   0.958
  sub61                     71.59       0.00       0.00       2.65      58.29       9.52      67.81        1.24   818.09   0.947
  sub62                     71.59       0.00       0.00       1.22      64.57       4.51      69.09        1.89  1157.39   0.965
  sub63                     71.59       0.00       0.00       4.88      49.86      15.88      65.74        1.49   926.24   0.918
  sub64                     71.59       0.00       0.00       2.47      59.64       8.27      67.91        1.63   944.87   0.949
  sub65                     71.59       0.00       0.00       2.14      61.03       7.17      68.20        1.88  1059.50   0.953
  sub66                     71.59       0.00       0.00       6.05      49.75      14.71      64.46        3.01  1403.05   0.901
  sub67                     71.59       0.00       0.00       1.17      64.62       4.56      69.17        1.29   881.49   0.966
  sub68                     71.59       0.00       0.00       2.19      60.38       7.83      68.21        1.88  1186.32   0.953
  sub69                     71.59       0.00       0.00       1.96      60.74       8.78      69.52        2.57  1410.10   0.971
  sub70                     71.59       0.00       0.00       6.54      47.08      17.80      64.88        1.87   789.71   0.906
  sub71                     71.59       0.00       0.00       1.25      64.53       4.48      69.01        1.80  1022.88   0.964
  sub72                     71.59       0.00       0.00       1.11      65.17       3.90      69.07        0.95   498.77   0.965
  
  
  ******************
  Node Depth Summary
  ******************
  
  ---------------------------------------------------------------------------------
                                 Average  Maximum  Maximum  Time of Max    Reported
                                   Depth    Depth      HGL   Occurrence   Max Depth
  Node                 Type       Meters   Meters   Meters  days hr:min      Meters
  ---------------------------------------------------------------------------------
  WS02003060           JUNCTION     0.26     0.38     5.32     0  02:34        0.38
  WS02003066           JUNCTION     0.21     0.30     5.85     0  02:34        0.30
  WS02003067           JUNCTION     0.53     0.70     6.02     0  02:33        0.70
  WS02003069           JUNCTION     0.29     0.43     5.01     0  02:35        0.43
  WS02003072           JUNCTION     0.35     0.50     4.87     0  02:35        0.50
  WS02003073           JUNCTION     0.20     0.30     4.36     0  02:36        0.30
  WS02004401           JUNCTION     0.61     0.85     6.85     0  02:48        0.85
  WS02004402           JUNCTION     0.65     0.88     6.84     0  02:49        0.88
  WS02004403           JUNCTION     0.67     0.89     6.82     0  02:49        0.89
  WS02004404           JUNCTION     0.74     0.96     6.81     0  02:51        0.96
  WS02004405           JUNCTION     0.74     0.96     6.81     0  02:49        0.96
  WS02004406           JUNCTION     0.75     0.96     6.79     0  02:49        0.96
  WS02004407           JUNCTION     0.19     0.30     6.61     0  02:49        0.30
  WS02004409           JUNCTION     0.43     0.67     6.44     0  02:32        0.67
  WS02004410           JUNCTION     0.45     0.68     6.40     0  02:32        0.68
  WS02004411           JUNCTION     0.47     0.69     6.37     0  02:33        0.69
  WS02004412           JUNCTION     0.49     0.70     6.34     0  02:33        0.70
  WS02004413           JUNCTION     0.65     0.86     6.33     0  02:33        0.86
  WS02006109           JUNCTION     0.68     1.24     7.86     0  02:37        1.22
  WS02006110           JUNCTION     0.68     1.29     7.87     0  02:37        0.99
  WS02006111           JUNCTION     0.19     0.29     7.00     0  02:11        0.29
  WS02006112           JUNCTION     0.77     1.10     6.99     0  02:37        1.05
  WS02006113           JUNCTION     0.29     0.46     7.36     0  02:11        0.46
  WS02006115           JUNCTION     0.50     0.75     6.89     0  02:31        0.75
  WS02006116           JUNCTION     0.59     0.83     6.87     0  02:48        0.83
  WS02006228           JUNCTION     0.68     1.60     8.26     0  02:37        1.60
  WS02006229           JUNCTION     0.65     1.84     8.53     0  01:56        1.84
  WS02006230           JUNCTION     0.65     1.96     8.71     0  02:36        1.91
  WS02006231           JUNCTION     0.46     1.63     8.75     0  02:11        1.63
  WS02006232           JUNCTION     0.60     2.08     9.12     0  02:11        2.08
  WS02006234           JUNCTION     0.52     1.96     9.12     0  02:11        1.96
  WS02006235           JUNCTION     0.56     2.00     9.16     0  02:11        2.00
  WS02006238           JUNCTION     0.59     2.15     9.29     0  02:11        2.15
  WS02006239           JUNCTION     0.56     2.03     9.24     0  02:11        2.03
  WS02006240           JUNCTION     0.52     1.95     9.24     0  02:11        1.95
  WS02006242           JUNCTION     0.59     1.55     8.82     0  02:11        1.55
  WS02006243           JUNCTION     0.49     1.48     8.90     0  02:11        1.48
  WS02006245           JUNCTION     0.49     1.47     8.95     0  02:11        1.47
  WS02006247           JUNCTION     0.51     1.35     8.85     0  02:11        1.35
  WS02006248           JUNCTION     0.47     1.10     8.69     0  01:55        1.10
  WS02006249           JUNCTION     0.50     1.09     8.69     0  01:37        1.09
  WS02006251           JUNCTION     0.49     1.48     9.15     0  01:55        1.15
  WS02006252           JUNCTION     0.37     1.50     9.74     0  00:00        1.06
  WS02006256           JUNCTION     0.99     2.35     9.28     0  00:00        2.35
  WSF200               JUNCTION     0.19     0.29     5.52     0  02:34        0.29
  YS02001580           JUNCTION     0.07     1.05     9.59     0  01:52        0.83
  YS02001583           JUNCTION     0.11     1.14     9.64     0  01:56        1.14
  YS02001586           JUNCTION     0.16     1.13     9.30     0  01:52        1.13
  YS02001590           JUNCTION     0.25     1.40     9.26     0  01:56        1.40
  YS02001593           JUNCTION     0.19     1.41     9.28     0  01:56        1.29
  YS02001596           JUNCTION     0.25     1.80     9.22     0  01:56        1.80
  YS02001600           JUNCTION     0.30     1.87     9.00     0  01:56        1.87
  YS02001601           JUNCTION     0.48     2.06     8.90     0  01:51        2.06
  YS02001602           JUNCTION     0.40     1.87     8.77     0  01:52        1.87
  YS02001605           JUNCTION     0.37     1.78     8.68     0  01:53        1.78
  YS02001607           JUNCTION     0.38     1.68     8.53     0  01:53        1.68
  YS02001610           JUNCTION     0.43     1.68     8.48     0  01:53        1.68
  YS02001613           JUNCTION     0.38     1.70     8.54     0  01:53        1.70
  YS02001616           JUNCTION     0.32     1.61     8.52     0  01:53        1.61
  YS02001619           JUNCTION     0.29     1.61     8.54     0  01:53        1.61
  YS02001622           JUNCTION     0.28     1.60     8.50     0  01:53        1.60
  YS02001625           JUNCTION     0.55     1.78     8.38     0  01:55        1.78
  YS02001629           JUNCTION     0.39     1.85     8.40     0  01:56        1.85
  YS02001633           JUNCTION     0.47     2.08     8.53     0  01:56        2.08
  YS02001641           JUNCTION     0.46     2.10     8.54     0  01:56        2.10
  YS02001644           JUNCTION     0.46     1.92     8.35     0  01:56        1.92
  YS02001647           JUNCTION     0.26     1.77     8.38     0  01:57        1.75
  YS02001649           JUNCTION     0.30     1.98     8.37     0  01:58        1.96
  YS02001652           JUNCTION     0.20     2.07     8.67     0  02:28        1.82
  YS02001655           JUNCTION     0.16     2.20     9.05     0  02:28        1.61
  YS02001658           JUNCTION     0.11     1.79     8.94     0  01:57        1.37
  YS02001661           JUNCTION     0.14     1.38     8.79     0  01:58        1.16
  YS02001664           JUNCTION     0.04     0.62     8.55     0  02:01        0.61
  YS02001745           JUNCTION     0.06     0.84     8.36     0  02:01        0.82
  YS02001748           JUNCTION     0.11     1.65     8.73     0  01:57        1.25
  YS02001751           JUNCTION     0.14     1.86     8.74     0  01:57        1.43
  YS02001754           JUNCTION     0.18     1.71     8.32     0  01:57        1.69
  YS02001757           JUNCTION     0.32     2.02     8.28     0  02:01        2.01
  YS02001759           JUNCTION     0.26     2.01     8.38     0  02:01        2.00
  YS02001762           JUNCTION     0.25     1.99     8.39     0  02:00        1.97
  YS02001765           JUNCTION     0.24     1.95     8.40     0  02:00        1.94
  YS02001767           JUNCTION     0.24     1.93     8.42     0  02:00        1.91
  YS02001770           JUNCTION     0.25     1.94     8.43     0  02:00        1.93
  YS02001774           JUNCTION     0.31     1.99     8.41     0  01:56        1.97
  YS02001779           JUNCTION     0.16     1.68     8.37     0  01:56        1.68
  YS02001783           JUNCTION     0.20     2.40     8.54     0  01:56        2.40
  YS02001784           JUNCTION     0.21     2.29     8.36     0  01:56        2.29
  YS02001786           JUNCTION     0.18     0.96     6.99     0  01:56        0.87
  YS02001788           JUNCTION     0.13     0.63     6.61     0  01:56        0.62
  YS02001790           JUNCTION     0.15     0.73     6.38     0  02:00        0.72
  YS02001791           JUNCTION     0.10     0.44     5.91     0  01:57        0.44
  YS02001793           JUNCTION     0.05     0.29     5.12     0  02:11        0.29
  YS02001882           JUNCTION     0.26     1.69     8.41     0  01:56        1.65
  YS02001884           JUNCTION     0.35     1.78     8.39     0  01:56        1.75
  YS02001887           JUNCTION     0.43     2.00     8.54     0  01:56        2.00
  YS02001890           JUNCTION     0.46     1.81     8.32     0  01:55        1.81
  YS02001895           JUNCTION     0.23     1.57     8.32     0  01:56        1.56
  YS02001898           JUNCTION     0.24     1.58     8.32     0  01:56        1.57
  YS02001901           JUNCTION     0.35     1.69     8.30     0  01:56        1.67
  YS02001904           JUNCTION     0.33     1.72     8.35     0  02:11        1.72
  YS02001907           JUNCTION     0.65     1.96     8.25     0  01:55        1.96
  YS02001910           JUNCTION     0.45     2.10     8.61     0  01:56        2.10
  YS02001915           JUNCTION     0.26     2.00     8.72     0  01:56        2.00
  YS02001918           JUNCTION     0.14     1.81     8.88     0  01:56        1.50
  YS02001920           JUNCTION     0.22     2.14     9.15     0  01:56        2.14
  YS02001923           JUNCTION     0.10     2.03     9.29     0  01:56        1.34
  YS02001926           JUNCTION     0.14     1.90     9.35     0  01:56        1.18
  YS02001929           JUNCTION     0.07     1.78     9.47     0  01:56        0.94
  YS02006553           JUNCTION     0.66     2.04     8.33     0  01:56        1.97
  YS02006556           JUNCTION     0.63     2.39     8.70     0  01:56        2.39
  YS02006558           JUNCTION     0.67     2.50     8.77     0  01:56        2.50
  YS02006561           JUNCTION     0.12     1.16     7.82     0  01:56        0.90
  YS02163301           JUNCTION     0.42     2.03     8.55     0  01:56        2.03
  YS02163601           JUNCTION     0.52     2.08     8.48     0  01:56        2.08
  YS02164001           JUNCTION     0.45     2.10     8.56     0  01:56        2.10
  CC-1                 OUTFALL      0.00     0.00     0.00     0  00:00        0.00
  CC-2                 OUTFALL      0.00     0.00     0.00     0  00:00        0.00
  JK-1                 OUTFALL      0.00     0.00     0.00     0  00:00        0.00
  JK-2                 OUTFALL      0.00     0.00     0.00     0  00:00        0.00
  WSC                  OUTFALL      0.20     0.30     0.97     0  02:36        0.30
  CC-storage           STORAGE      0.85     1.76     7.26     0  02:31        1.76
  JK-storage           STORAGE      2.69     4.23     5.03     0  02:10        4.15
  
  
  *******************
  Node Inflow Summary
  *******************
  
  -------------------------------------------------------------------------------------------------
                                  Maximum  Maximum                  Lateral       Total        Flow
                                  Lateral    Total  Time of Max      Inflow      Inflow     Balance
                                   Inflow   Inflow   Occurrence      Volume      Volume       Error
  Node                 Type           LPS      LPS  days hr:min    10^6 ltr    10^6 ltr     Percent
  -------------------------------------------------------------------------------------------------
  WS02003060           JUNCTION     16.53   553.29     0  02:34       0.476        6.33       0.030
  WS02003066           JUNCTION      0.00   536.68     0  02:34           0        5.86       0.022
  WS02003067           JUNCTION      0.00   536.67     0  02:33           0        5.86       0.068
  WS02003069           JUNCTION      0.32   553.54     0  02:34     0.00922        6.34       0.055
  WS02003072           JUNCTION      0.00   553.44     0  02:35           0        6.33       0.101
  WS02003073           JUNCTION      1.82   555.20     0  02:35      0.0524        6.38       0.078
  WS02004401           JUNCTION      0.00   542.99     0  02:12           0        5.96       0.166
  WS02004402           JUNCTION      0.00   538.25     0  02:43           0        5.95       0.169
  WS02004403           JUNCTION      0.00   537.78     0  02:50           0        5.94       0.166
  WS02004404           JUNCTION      0.16   537.58     0  02:49     0.00467        5.93       0.139
  WS02004405           JUNCTION      0.04   537.67     0  02:49      0.0011        5.92       0.205
  WS02004406           JUNCTION      0.00   537.77     0  02:51           0        5.91       0.344
  WS02004407           JUNCTION      0.00   537.38     0  02:49           0        5.89       0.014
  WS02004409           JUNCTION      0.00   537.20     0  02:49           0        5.89       0.036
  WS02004410           JUNCTION      0.00   537.03     0  02:50           0        5.89       0.067
  WS02004411           JUNCTION      0.00   536.80     0  02:33           0        5.88       0.087
  WS02004412           JUNCTION      0.00   536.76     0  02:33           0        5.88       0.119
  WS02004413           JUNCTION      0.00   536.73     0  02:33           0        5.87       0.216
  WS02006109           JUNCTION      1.23   588.18     0  02:11      0.0354           6       0.108
  WS02006110           JUNCTION      0.00   583.55     0  02:11           0        5.99       0.102
  WS02006111           JUNCTION      0.00   576.70     0  02:11           0        5.98       0.011
  WS02006112           JUNCTION      0.00   554.92     0  02:11           0        5.98       0.304
  WS02006113           JUNCTION      0.00   599.12     0  02:11           0        5.98       0.026
  WS02006115           JUNCTION      0.00   557.36     0  02:11           0        5.96       0.106
  WS02006116           JUNCTION      0.00   548.42     0  02:11           0        5.96       0.019
  WS02006228           JUNCTION      0.00   585.99     0  02:11           0        5.96       0.037
  WS02006229           JUNCTION      0.00   581.72     0  02:11           0        5.97       0.075
  WS02006230           JUNCTION     10.28   585.58     0  03:10       0.296        5.97       0.035
  WS02006231           JUNCTION      0.00   569.13     0  03:10           0        5.68       0.073
  WS02006232           JUNCTION      0.00   568.41     0  03:10           0        5.68       0.072
  WS02006234           JUNCTION      0.00   564.65     0  02:55           0        5.68      -0.106
  WS02006235           JUNCTION      0.00   602.18     0  01:53           0        5.71       0.096
  WS02006238           JUNCTION      0.00   421.91     0  02:05           0        4.66      -0.219
  WS02006239           JUNCTION      0.00   421.92     0  02:50           0        4.63      -0.190
  WS02006240           JUNCTION      0.00   419.39     0  02:50           0        4.62      -0.067
  WS02006242           JUNCTION      0.00   419.80     0  02:50           0        4.61      -0.038
  WS02006243           JUNCTION      0.00   419.18     0  02:50           0         4.6      -0.131
  WS02006245           JUNCTION      0.00   417.95     0  02:50           0         4.6       0.237
  WS02006247           JUNCTION      0.00   418.15     0  02:05           0         4.6      -0.043
  WS02006248           JUNCTION      0.00   418.51     0  02:05           0         4.6       0.022
  WS02006249           JUNCTION      0.00   492.13     0  01:50           0         4.9       0.284
  WS02006251           JUNCTION      0.08   410.35     0  01:56     0.00222         4.9       0.020
  WS02006252           JUNCTION      0.00   400.00     0  00:00           0        4.89      -0.103
  WS02006256           JUNCTION      0.00   300.00     0  00:00           0        1.56      -0.588
  WSF200               JUNCTION      0.00   536.70     0  02:34           0        5.85       0.005
  YS02001580           JUNCTION      0.00   112.80     0  01:52           0     0.00426      -0.495
  YS02001583           JUNCTION      0.00   149.23     0  01:52           0      0.0153      -4.339
  YS02001586           JUNCTION    789.71   789.71     0  02:04        1.87        1.89       0.069
  YS02001590           JUNCTION      0.00   351.23     0  01:56           0        1.42      -0.028
  YS02001593           JUNCTION      0.00   344.66     0  01:56           0        1.42       0.005
  YS02001596           JUNCTION      0.00   319.58     0  01:56           0        1.42      -0.011
  YS02001600           JUNCTION      0.00   320.83     0  01:56           0        1.42       0.017
  YS02001601           JUNCTION   1410.10  1727.69     0  02:03        2.57        3.99       0.017
  YS02001602           JUNCTION      0.00   514.50     0  01:51           0        2.38       0.013
  YS02001605           JUNCTION      0.00   513.94     0  01:51           0        2.24       0.016
  YS02001607           JUNCTION      0.00   513.15     0  01:51           0        2.24       0.082
  YS02001610           JUNCTION      0.00   781.71     0  02:04           0        2.54       0.085
  YS02001613           JUNCTION      0.00   513.29     0  01:51           0           2       0.079
  YS02001616           JUNCTION      0.00   510.90     0  01:51           0           2       0.023
  YS02001619           JUNCTION   1403.05  1403.05     0  02:04        3.01        4.71      -0.006
  YS02001622           JUNCTION      0.00   967.97     0  02:02           0        4.42      -0.000
  YS02001625           JUNCTION      0.00  1382.80     0  02:04           0        4.67       0.193
  YS02001629           JUNCTION      0.00   921.53     0  01:55           0        3.55       0.010
  YS02001633           JUNCTION   1059.70  1368.68     0  01:55        1.88        5.12       0.062
  YS02001641           JUNCTION      0.00  1367.51     0  01:55           0        4.82       0.052
  YS02001644           JUNCTION    944.91  1773.41     0  01:55        1.63        6.45       0.050
  YS02001647           JUNCTION      0.00  1774.27     0  01:55           0        5.87       0.002
  YS02001649           JUNCTION      0.00  1993.09     0  01:55           0        7.37       0.002
  YS02001652           JUNCTION      0.00   952.95     0  02:01           0         1.5      -0.078
  YS02001655           JUNCTION      0.15   952.77     0  02:01     0.00443         1.5      -0.044
  YS02001658           JUNCTION      0.00   952.33     0  02:01           0         1.5      -0.020
  YS02001661           JUNCTION      0.00   949.69     0  02:02           0         1.5       0.002
  YS02001664           JUNCTION    926.24   926.24     0  02:02        1.49        1.49      -0.007
  YS02001745           JUNCTION    589.32   589.32     0  02:02       0.901       0.901       0.167
  YS02001748           JUNCTION      0.04   600.81     0  02:01      0.0013       0.902      -0.233
  YS02001751           JUNCTION      0.01   601.54     0  02:01    0.000317        0.91       0.070
  YS02001754           JUNCTION      0.26   602.36     0  02:01     0.00749       0.923      -0.173
  YS02001757           JUNCTION      0.00  3287.31     0  01:58           0        11.2       0.026
  YS02001759           JUNCTION    818.13  1361.08     0  02:00        1.25        2.89      -0.012
  YS02001762           JUNCTION      0.00   717.47     0  01:58           0        1.64       0.006
  YS02001765           JUNCTION      0.00   716.35     0  01:58           0        1.64      -0.004
  YS02001767           JUNCTION      0.54   717.45     0  01:58      0.0154        1.64       0.003
  YS02001770           JUNCTION   1157.54  1157.54     0  02:02         1.9        1.94       0.001
  YS02001774           JUNCTION      0.00   651.13     0  02:02           0       0.336       0.286
  YS02001779           JUNCTION      0.01   651.92     0  02:02    0.000144        0.29      -0.167
  YS02001783           JUNCTION      0.00  1167.92     0  02:00           0        4.32       0.002
  YS02001784           JUNCTION      1.06  1165.70     0  02:01      0.0305        4.35       0.010
  YS02001786           JUNCTION      0.06  1189.72     0  01:56     0.00162        4.35       0.015
  YS02001788           JUNCTION      0.07  1182.51     0  01:56     0.00204        4.35       0.007
  YS02001790           JUNCTION      0.15  1185.21     0  01:56     0.00446        4.36       0.022
  YS02001791           JUNCTION      0.00  1302.20     0  02:00           0        4.36      -0.029
  YS02001793           JUNCTION      0.00  1245.27     0  02:05           0        4.36       0.005
  YS02001882           JUNCTION      0.00    38.61     0  01:53           0      0.0127       4.321
  YS02001884           JUNCTION      0.00    70.00     0  01:53           0       0.049       5.618
  YS02001887           JUNCTION    881.94   882.72     0  02:01         1.3        1.33       0.331
  YS02001890           JUNCTION      0.00   882.40     0  02:01           0        1.29       0.399
  YS02001895           JUNCTION      0.00   518.68     0  02:03           0        1.16       0.148
  YS02001898           JUNCTION      0.00   518.29     0  02:06           0        1.15       0.015
  YS02001901           JUNCTION      0.00   518.22     0  02:06           0        1.16       0.284
  YS02001904           JUNCTION      0.00   518.21     0  02:06           0        1.16       0.243
  YS02001907           JUNCTION      0.00  2068.97     0  02:02           0        3.99       0.456
  YS02001910           JUNCTION      0.00  1530.94     0  02:02           0        2.84       0.252
  YS02001915           JUNCTION   1022.90  1530.67     0  02:02         1.8        2.87       0.052
  YS02001918           JUNCTION      0.00   509.57     0  02:02           0         1.1      -0.012
  YS02001920           JUNCTION      2.87   509.15     0  02:02      0.0827        1.08       0.080
  YS02001923           JUNCTION      0.04   505.65     0  02:02     0.00109       0.982      -0.061
  YS02001926           JUNCTION      0.05   531.18     0  01:56      0.0015       0.962      -0.127
  YS02001929           JUNCTION    498.77   498.77     0  02:03        0.95       0.951      -0.036
  YS02006553           JUNCTION      0.00   797.24     0  02:20           0        2.47       0.485
  YS02006556           JUNCTION      0.00   797.10     0  02:20           0        2.48       0.320
  YS02006558           JUNCTION   1187.20  1187.20     0  02:02         1.9        4.35       0.079
  YS02006561           JUNCTION      0.00  1165.00     0  01:59           0        4.32      -0.006
  YS02163301           JUNCTION      0.00   920.27     0  01:54           0        3.54       0.039
  YS02163601           JUNCTION      0.11  1369.23     0  01:55     0.00317        4.82       0.097
  YS02164001           JUNCTION      0.00  1369.56     0  01:55           0        4.82       0.036
  CC-1                 OUTFALL       0.00   683.00     0  00:00           0        3.74       0.000
  CC-2                 OUTFALL       0.00   683.00     0  00:00           0        3.36       0.000
  JK-1                 OUTFALL       0.00  1000.00     0  00:00           0        1.31       0.000
  JK-2                 OUTFALL       0.00  1000.00     0  00:00           0        1.56       0.000
  WSC                  OUTFALL       0.00   555.16     0  02:36           0        6.38       0.000
  CC-storage           STORAGE       0.00  3287.59     0  01:58           0        13.4      -0.217
  JK-storage           STORAGE       0.00  1235.69     0  02:18           0        4.51      -0.241
  
  
  **********************
  Node Surcharge Summary
  **********************
  
  Surcharging occurs when water rises above the top of the highest conduit.
  ---------------------------------------------------------------------
                                               Max. Height   Min. Depth
                                   Hours       Above Crown    Below Rim
  Node                 Type      Surcharged         Meters       Meters
  ---------------------------------------------------------------------
  WS02006109           JUNCTION        2.00          0.423        1.397
  WS02006110           JUNCTION        1.01          0.379        1.471
  WS02006112           JUNCTION        1.03          0.104        1.576
  WS02006228           JUNCTION        1.99          0.775        1.425
  WS02006229           JUNCTION        2.02          1.035        1.415
  WS02006230           JUNCTION        1.01          0.885        0.685
  WS02006231           JUNCTION        1.12          0.920        0.610
  WS02006232           JUNCTION        2.13          1.376        0.104
  WS02006234           JUNCTION        1.42          1.240        0.000
  WS02006235           JUNCTION        2.02          1.290        0.000
  WS02006238           JUNCTION        2.08          1.430        0.000
  WS02006239           JUNCTION        2.02          1.290        0.000
  WS02006240           JUNCTION        1.97          1.237        0.153
  WS02006242           JUNCTION        2.11          0.820        0.000
  WS02006243           JUNCTION        1.96          0.770        0.000
  WS02006245           JUNCTION        1.95          0.759        0.091
  WS02006247           JUNCTION        1.98          0.638        0.122
  WS02006248           JUNCTION        1.93          0.380        0.000
  WS02006249           JUNCTION        1.96          0.390        0.000
  WS02006251           JUNCTION        1.17          0.453        0.727
  WS02006252           JUNCTION        2.54          1.100        0.000
  WS02006256           JUNCTION        5.84          2.050        0.000
  YS02001580           JUNCTION        0.70          0.450        0.000
  YS02001583           JUNCTION        0.71          0.500        0.000
  YS02001586           JUNCTION        0.85          0.510        0.000
  YS02001590           JUNCTION        0.93          0.750        0.000
  YS02001593           JUNCTION        0.94          0.794        0.046
  YS02001596           JUNCTION        1.06          1.070        0.000
  YS02001600           JUNCTION        1.22          1.190        0.000
  YS02001601           JUNCTION        1.53          1.440        0.000
  YS02001602           JUNCTION        1.44          1.270        0.000
  YS02001605           JUNCTION        1.40          1.180        0.000
  YS02001607           JUNCTION        0.93          0.680        0.000
  YS02001610           JUNCTION        0.96          0.680        0.000
  YS02001613           JUNCTION        0.92          0.700        0.000
  YS02001616           JUNCTION        0.88          0.610        0.000
  YS02001619           JUNCTION        0.87          0.610        0.000
  YS02001622           JUNCTION        0.87          0.600        0.020
  YS02001625           JUNCTION        1.06          0.780        0.000
  YS02001629           JUNCTION        0.82          0.470        0.000
  YS02001633           JUNCTION        1.09          1.060        0.000
  YS02001641           JUNCTION        1.04          1.100        0.000
  YS02001644           JUNCTION        1.01          0.920        0.000
  YS02001647           JUNCTION        0.78          0.766        0.134
  YS02001649           JUNCTION        0.93          0.985        0.065
  YS02001652           JUNCTION        0.72          1.042        0.088
  YS02001655           JUNCTION        0.53          1.200        0.000
  YS02001658           JUNCTION        0.28          0.793        0.507
  YS02001661           JUNCTION        0.06          0.314        1.076
  YS02001748           JUNCTION        0.22          0.573        0.617
  YS02001751           JUNCTION        0.39          0.865        0.335
  YS02001754           JUNCTION        0.62          0.660        0.490
  YS02001757           JUNCTION        1.00          1.021        0.189
  YS02001759           JUNCTION        0.91          1.013        0.197
  YS02001762           JUNCTION        0.87          0.991        0.159
  YS02001765           JUNCTION        0.82          0.952        0.148
  YS02001767           JUNCTION        0.78          0.926        0.104
  YS02001770           JUNCTION        0.76          0.908        0.012
  YS02001774           JUNCTION        0.85          0.988        0.062
  YS02001779           JUNCTION        0.61          0.680        0.000
  YS02001783           JUNCTION        0.61          1.600        0.000
  YS02001784           JUNCTION        0.58          1.490        0.000
  YS02001786           JUNCTION        0.47          0.163        1.267
  YS02001882           JUNCTION        0.55          0.690        0.140
  YS02001884           JUNCTION        0.56          0.715        0.155
  YS02001887           JUNCTION        0.59          0.950        0.000
  YS02001890           JUNCTION        0.61          0.760        0.000
  YS02001895           JUNCTION        0.54          0.573        0.177
  YS02001898           JUNCTION        0.53          0.553        0.187
  YS02001901           JUNCTION        0.58          0.691        0.179
  YS02001904           JUNCTION        0.57          0.716        0.134
  YS02001907           JUNCTION        0.84          0.950        0.000
  YS02001910           JUNCTION        0.64          1.100        0.000
  YS02001915           JUNCTION        0.54          1.000        0.000
  YS02001918           JUNCTION        0.46          0.810        0.000
  YS02001920           JUNCTION        0.47          1.140        0.000
  YS02001923           JUNCTION        0.14          0.820        0.000
  YS02001926           JUNCTION        0.17          0.900        0.000
  YS02001929           JUNCTION        0.01          0.780        0.000
  YS02006553           JUNCTION        0.85          1.044        0.146
  YS02006556           JUNCTION        0.74          1.350        0.000
  YS02006558           JUNCTION        0.73          1.400        0.000
  YS02006561           JUNCTION        0.42          0.357        0.793
  YS02163301           JUNCTION        1.07          1.030        0.000
  YS02163601           JUNCTION        1.13          1.080        0.000
  YS02164001           JUNCTION        1.04          1.100        0.000
  
  
  *********************
  Node Flooding Summary
  *********************
  
  Flooding refers to all water that overflows a node, whether it ponds or not.
  --------------------------------------------------------------------------
                                                             Total   Maximum
                                 Maximum   Time of Max       Flood    Ponded
                        Hours       Rate    Occurrence      Volume     Depth
  Node                 Flooded       LPS   days hr:min    10^6 ltr    Meters
  --------------------------------------------------------------------------
  WS02006234              0.01      2.26      0  02:11       0.000     0.000
  WS02006235              0.01      3.68      0  02:11       0.000     0.000
  WS02006238              0.01      2.21      0  02:11       0.000     0.000
  WS02006239              0.01      0.92      0  02:11       0.000     0.000
  WS02006242              0.01     60.71      0  04:25       0.000     0.000
  WS02006243              0.01      0.24      0  02:11       0.000     0.000
  WS02006248              0.01     21.18      0  02:11       0.000     0.000
  WS02006249              1.15    101.53      0  01:55       0.284     0.000
  WS02006252              0.01    245.63      0  00:00       0.000     0.000
  WS02006256              1.44    293.19      0  00:00       0.509     0.000
  YS02001580              0.01     96.86      0  01:52       0.000     0.000
  YS02001583              0.01      0.31      0  01:56       0.000     0.000
  YS02001586              0.56    472.14      0  02:04       0.451     0.000
  YS02001590              0.01     12.81      0  01:56       0.000     0.000
  YS02001596              0.01      0.22      0  01:56       0.000     0.000
  YS02001600              0.01     39.12      0  01:56       0.000     0.000
  YS02001601              0.77   1329.74      0  02:03       1.614     0.000
  YS02001602              0.67     61.98      0  02:21       0.135     0.000
  YS02001605              0.01     10.06      0  01:56       0.000     0.000
  YS02001607              0.01      1.35      0  01:53       0.000     0.000
  YS02001610              0.58    781.62      0  02:04       0.828     0.000
  YS02001613              0.01      2.09      0  01:53       0.000     0.000
  YS02001616              0.01      4.25      0  02:11       0.000     0.000
  YS02001619              0.01      4.08      0  01:53       0.000     0.000
  YS02001625              0.56   1382.78      0  02:04       1.418     0.000
  YS02001629              0.15    172.22      0  02:00       0.051     0.000
  YS02001633              0.01      0.91      0  01:56       0.000     0.000
  YS02001641              0.01      4.08      0  01:56       0.000     0.000
  YS02001644              0.24   1196.80      0  02:02       0.570     0.000
  YS02001655              0.01    164.55      0  02:28       0.000     0.000
  YS02001779              0.22    651.88      0  02:02       0.271     0.000
  YS02001783              0.01      0.97      0  01:56       0.000     0.000
  YS02001784              0.01      0.84      0  01:56       0.000     0.000
  YS02001887              0.01      0.99      0  01:56       0.000     0.000
  YS02001890              0.20    367.58      0  02:01       0.131     0.000
  YS02001907              0.40   2068.61      0  02:02       1.519     0.000
  YS02001910              0.01      0.34      0  01:56       0.000     0.000
  YS02001915              0.01      2.09      0  01:56       0.000     0.000
  YS02001918              0.01    110.69      0  01:56       0.001     0.000
  YS02001920              0.01     34.58      0  01:56       0.000     0.000
  YS02001923              0.01     71.25      0  01:56       0.000     0.000
  YS02001926              0.01    224.16      0  01:56       0.001     0.000
  YS02001929              0.01    159.63      0  01:56       0.001     0.000
  YS02006556              0.01      1.83      0  01:56       0.000     0.000
  YS02006558              0.01      2.73      0  01:56       0.000     0.000
  YS02163301              0.01      0.17      0  01:56       0.000     0.000
  YS02163601              0.01      1.26      0  01:56       0.000     0.000
  YS02164001              0.01      4.14      0  01:56       0.000     0.000
  
  
  **********************
  Storage Volume Summary
  **********************
  
  ------------------------------------------------------------------------------------------------
                         Average    Avg   Evap  Exfil     Maximum    Max    Time of Max    Maximum
                          Volume   Pcnt   Pcnt   Pcnt      Volume   Pcnt     Occurrence    Outflow
  Storage Unit           1000 m³   Full   Loss   Loss     1000 m³   Full    days hr:min        LPS
  ------------------------------------------------------------------------------------------------
  CC-storage               2.362   36.9    0.0    0.0       4.909   76.6       0  02:31    1783.53
  JK-storage               0.135   46.4    0.0    0.0       0.213   73.0       0  02:10    2300.00
  
  
  ***********************
  Outfall Loading Summary
  ***********************
  
  -----------------------------------------------------------
                         Flow       Avg       Max       Total
                         Freq      Flow      Flow      Volume
  Outfall Node           Pcnt       LPS       LPS    10^6 ltr
  -----------------------------------------------------------
  CC-1                  18.89    683.00    683.00       3.745
  CC-2                  15.50    683.00    683.00       3.359
  JK-1                   4.73   1000.00   1000.00       1.312
  JK-2                   4.84   1000.00   1000.00       1.556
  WSC                   99.96    291.01    555.16       6.376
  -----------------------------------------------------------
  System                28.79   3657.01   3921.03      16.347
  
  
  ********************
  Link Flow Summary
  ********************
  
  -----------------------------------------------------------------------------
                                 Maximum  Time of Max   Maximum    Max/    Max/
                                  |Flow|   Occurrence   |Veloc|    Full    Full
  Link                 Type          LPS  days hr:min     m/sec    Flow   Depth
  -----------------------------------------------------------------------------
  1                    CONDUIT    555.16     0  02:36      2.83    0.19    0.30
  WS02003060WS02003069 CONDUIT    553.22     0  02:34      1.64    0.22    0.34
  WS02003066WSF200     CONDUIT    536.70     0  02:34      2.85    0.09    0.22
  WS02003067WS02003066 CONDUIT    536.68     0  02:34      1.21    0.17    0.42
  WS02003069WS02003072 CONDUIT    553.44     0  02:35      1.37    0.27    0.39
  WS02003072WS02003073 CONDUIT    553.38     0  02:35      1.44    1.20    0.37
  WS02004401WS02004402 CONDUIT    538.25     0  02:43      1.07    0.65    0.86
  WS02004402WS02004403 CONDUIT    537.78     0  02:50      1.09    0.77    0.88
  WS02004403WS02004404 CONDUIT    537.42     0  02:49      1.06    0.39    0.93
  WS02004404WS02004405 CONDUIT    537.63     0  02:49      1.24    5.27    0.96
  WS02004405WS02004406 CONDUIT    537.77     0  02:51      1.20    1.06    0.96
  WS02004406WS02004407 CONDUIT    537.38     0  02:49      1.04    0.24    0.63
  WS02004407WS02004409 CONDUIT    537.20     0  02:49      1.67    0.19    0.48
  WS02004409WS02004410 CONDUIT    537.03     0  02:50      1.06    0.69    0.67
  WS02004410WS02004411 CONDUIT    536.80     0  02:33      0.98    0.73    0.69
  WS02004411WS02004412 CONDUIT    536.76     0  02:33      0.98    0.76    0.69
  WS02004412WS02004413 CONDUIT    536.73     0  02:33      0.82    0.36    0.78
  WS02004413WS02003067 CONDUIT    536.67     0  02:33      1.11    0.23    0.59
  WS02006109WS02006110 CONDUIT    583.55     0  02:11      1.16    1.12    1.00
  WS02006110WS02006113 CONDUIT    599.12     0  02:11      1.42    0.55    0.79
  WS02006111WS02006112 CONDUIT    554.92     0  02:11      1.85    0.26    0.68
  WS02006112WS02006115 CONDUIT    557.36     0  02:11      0.87    0.33    0.87
  WS02006113WS02006111 CONDUIT    576.70     0  02:11      2.48    0.69    0.47
  WS02006115WS02006116 CONDUIT    548.42     0  02:11      1.16    0.70    0.76
  WS02006116WS02004401 CONDUIT    542.99     0  02:12      1.07    0.75    0.84
  WS02006228WS02006109 CONDUIT    586.95     0  02:11      1.17    2.56    1.00
  WS02006229WS02006228 CONDUIT    585.99     0  02:11      1.17    1.94    1.00
  WS02006230WS02006229 CONDUIT    581.72     0  02:11      1.51   12.95    1.00
  WS02006231WS02006230 CONDUIT    575.30     0  03:10      1.58    8.73    1.00
  WS02006232WS02006231 CONDUIT    569.13     0  03:10      1.49    1.19    1.00
  WS02006234WS02006232 CONDUIT    568.41     0  03:10      1.48    1.15    1.00
  WS02006235WS02006234 CONDUIT    564.65     0  02:55      1.51    5.96    1.00
  WS02006238WS02006235 CONDUIT    424.32     0  02:50      1.51    0.95    1.00
  WS02006239WS02006238 CONDUIT    421.91     0  02:05      1.10    1.35    1.00
  WS02006240WS02006239 CONDUIT    421.92     0  02:50      1.24    1.33    1.00
  WS02006242WS02006240 CONDUIT    419.39     0  02:50      1.13    1.67    1.00
  WS02006243WS02006242 CONDUIT    419.80     0  02:50      1.40    0.90    1.00
  WS02006245WS02006243 CONDUIT    419.18     0  02:50      1.45    1.24    1.00
  WS02006247WS02006245 CONDUIT    417.95     0  02:50      1.43    3.31    1.00
  WS02006248WS02006247 CONDUIT    418.15     0  02:05      1.44    0.91    1.00
  WS02006249WS02006248 CONDUIT    418.51     0  02:05      1.41    2.29    1.00
  WS02006251WS02006249 CONDUIT    492.13     0  01:50      1.99    1.42    1.00
  WS02006252WS02006251 CONDUIT    410.27     0  01:56     17.54    1.51    1.00
  WS02006256WS02006235 CONDUIT    288.91     0  00:00      4.23    3.06    1.00
  WSF200WS02003060     CONDUIT    536.76     0  02:34      2.06    0.12    0.28
  YS02001580YS02001583 CONDUIT    112.80     0  01:52      0.63    0.44    1.00
  YS02001583YS02001586 CONDUIT    149.23     0  01:52      0.62    0.23    1.00
  YS02001586YS02001590 CONDUIT    351.23     0  01:56      1.25    0.62    1.00
  YS02001590YS02001593 CONDUIT    344.66     0  01:56      1.22    2.16    1.00
  YS02001593YS02001596 CONDUIT    319.58     0  01:56      1.73    0.50    1.00
  YS02001596YS02001600 CONDUIT    320.83     0  01:56      1.25    0.62    1.00
  YS02001600YS02001601 CONDUIT    318.31     0  02:06      1.13    0.55    1.00
  YS02001601YS02001602 CONDUIT    514.50     0  01:51      1.82    1.86    1.00
  YS02001602YS02001605 CONDUIT    513.94     0  01:51      1.82   10.88    1.00
  YS02001605YS02001607 CONDUIT    513.15     0  01:51      1.81    2.81    1.00
  YS02001607YS02001610 CONDUIT    513.28     0  01:51      0.65    0.49    1.00
  YS02001610YS02001613 CONDUIT    513.29     0  01:51      0.65    0.59    1.00
  YS02001613YS02001616 CONDUIT    510.90     0  01:51      0.66    0.44    1.00
  YS02001616YS02001619 CONDUIT    502.86     0  01:52      0.67    0.87    1.00
  YS02001619YS02001622 CONDUIT    967.97     0  02:02      1.23    1.43    1.00
  YS02001622YS02001625 CONDUIT    968.21     0  02:03      1.23    0.52    1.00
  YS02001625YS02001629 CONDUIT    921.53     0  01:55      1.17    0.44    1.00
  YS02001629YS02163301 CONDUIT    920.27     0  01:54      1.17    1.13    1.00
  YS02001633YS02163601 CONDUIT   1369.12     0  01:55      1.74    1.44    1.00
  YS02001641YS02001644 CONDUIT   1366.31     0  01:55      1.74    4.42    1.00
  YS02001644YS02001647 CONDUIT   1774.27     0  01:55      2.26    1.04    1.00
  YS02001647YS02001649 CONDUIT   1776.90     0  01:55      2.33    0.94    1.00
  YS02001649YS02001757 CONDUIT   1990.78     0  01:55      2.53    1.21    1.00
  YS02001652YS02001649 CONDUIT    953.47     0  02:01      1.21    0.47    1.00
  YS02001655YS02001652 CONDUIT    952.95     0  02:01      1.34    0.46    1.00
  YS02001658YS02001655 CONDUIT    952.61     0  02:01      1.89    0.40    1.00
  YS02001661YS02001658 CONDUIT    952.33     0  02:01      2.30    0.37    1.00
  YS02001664YS02001661 CONDUIT    949.69     0  02:02      2.29    0.30    0.81
  YS02001745YS02001748 CONDUIT    600.76     0  02:01      2.16    0.23    0.92
  YS02001748YS02001751 CONDUIT    601.53     0  02:01      1.68    0.30    1.00
  YS02001751YS02001754 CONDUIT    602.10     0  02:01      1.43    0.29    1.00
  YS02001754YS02001757 CONDUIT    602.60     0  02:01      0.77    0.24    1.00
  YS02001757CaochengTiaoxuchi CONDUIT   3287.59     0  01:58      4.19    1.42    1.00
  YS02001759YS02001757 CONDUIT   1361.58     0  02:00      1.73    0.97    1.00
  YS02001762YS02001759 CONDUIT    718.72     0  01:58      0.92    0.83    1.00
  YS02001765YS02001762 CONDUIT    717.47     0  01:58      0.91    0.67    1.00
  YS02001767YS02001765 CONDUIT    716.35     0  01:58      0.91    0.90    1.00
  YS02001770YS02001767 CONDUIT    716.91     0  01:58      0.91    2.84    1.00
  YS02001774YS02001770 CONDUIT    651.13     0  02:02      0.83    0.42    1.00
  YS02001779YS02001774 CONDUIT    651.92     0  02:02      0.83    0.33    1.00
  YS02001783YS02001784 CONDUIT   1164.64     0  02:01      2.32    1.61    1.00
  YS02001784YS02001785 CONDUIT   1189.67     0  01:56      2.37    2.77    1.00
  YS02001786YS02001788 CONDUIT   1182.44     0  01:56      2.50    2.28    0.89
  YS02001788YS02001790 CONDUIT   1185.06     0  01:56      2.75    0.87    0.85
  YS02001790YS02001791 CONDUIT   1302.20     0  02:00      3.45    1.42    0.71
  YS02001791YS02001793 CONDUIT   1245.27     0  02:05      6.75    0.53    0.44
  YS02001793JiankangQianchi CONDUIT   1235.69     0  02:18      2.48    0.10    0.64
  YS02001882YS02001884 CONDUIT     38.61     0  01:53      0.14    0.04    1.00
  YS02001884YS02001887 CONDUIT     70.00     0  01:53      0.10    0.09    1.00
  YS02001887YS02001890 CONDUIT    882.40     0  02:01      1.12    1.51    1.00
  YS02001890YS02001895 CONDUIT    518.68     0  02:03      0.66    0.24    1.00
  YS02001895YS02001898 CONDUIT    518.29     0  02:06      0.66    0.90    1.00
  YS02001898YS02001901 CONDUIT    518.22     0  02:06      0.66    0.33    1.00
  YS02001901YS02001904 CONDUIT    518.21     0  02:06      0.66    0.80    1.00
  YS02001904YS02001907 CONDUIT    518.80     0  02:06      0.66    0.18    1.00
  YS02001907YS02006553 CONDUIT    797.24     0  02:20      0.89    0.94    1.00
  YS02001910YS02001907 CONDUIT   1530.37     0  02:02      1.95    0.86    1.00
  YS02001915YS02001910 CONDUIT   1530.94     0  02:02      1.95    0.76    1.00
  YS02001918YS02001915 CONDUIT    509.56     0  02:02      0.65    0.28    1.00
  YS02001920YS02001918 CONDUIT    509.57     0  02:02      0.65    0.49    1.00
  YS02001923YS02001920 CONDUIT    506.28     0  02:02      0.69    0.23    1.00
  YS02001926YS02001923 CONDUIT    505.61     0  02:02      0.96    0.72    1.00
  YS02001929YS02001926 CONDUIT    504.60     0  02:02      1.12    0.24    1.00
  YS02006553YS02006556 CONDUIT    797.10     0  02:20      1.01    0.68    1.00
  YS02006556YS02006558 CONDUIT    798.42     0  02:20      1.02    0.63    1.00
  YS02006558YS02006561 CONDUIT   1165.00     0  01:59      4.12    2.57    1.00
  YS02006561YS02001783 CONDUIT   1167.92     0  02:00      2.32    0.60    1.00
  YS02163301YS02001633 CONDUIT    921.26     0  01:53      1.17    0.87    1.00
  YS02163601YS02164001 CONDUIT   1369.56     0  01:55      1.74    1.21    1.00
  YS02164001YS02001641 CONDUIT   1367.51     0  01:55      1.74    1.87    1.00
  CC-R1                PUMP       683.00     0  00:00              1.00
  CC-R2                PUMP       683.00     0  00:00              1.00
  CC-S1                PUMP       200.00     0  00:00              1.00
  CC-S2                PUMP       200.00     0  00:00              1.00
  JK-R1                PUMP      1000.00     0  00:00              1.00
  JK-R2                PUMP      1000.00     0  00:00              1.00
  JK-S                 PUMP       300.00     0  00:00              1.00
  
  
  ***************************
  Flow Classification Summary
  ***************************
  
  -------------------------------------------------------------------------------------
                      Adjusted    ---------- Fraction of Time in Flow Class ---------- 
                       /Actual         Up    Down  Sub   Sup   Up    Down  Norm  Inlet 
  Conduit               Length    Dry  Dry   Dry   Crit  Crit  Crit  Crit  Ltd   Ctrl  
  -------------------------------------------------------------------------------------
  1                       1.00   0.00  0.00  0.00  0.00  1.00  0.00  0.00  0.43  0.00
  WS02003060WS02003069    1.00   0.00  0.00  0.00  0.98  0.02  0.00  0.00  0.66  0.00
  WS02003066WSF200        1.00   0.07  0.00  0.00  0.00  0.93  0.00  0.00  0.79  0.00
  WS02003067WS02003066    1.00   0.06  0.01  0.00  0.93  0.00  0.00  0.00  0.00  0.00
  WS02003069WS02003072    1.00   0.00  0.00  0.00  0.99  0.01  0.00  0.00  0.72  0.00
  WS02003072WS02003073    1.00   0.00  0.00  0.00  0.00  0.00  0.00  1.00  0.00  0.00
  WS02004401WS02004402    1.00   0.02  0.00  0.00  0.98  0.00  0.00  0.00  0.00  0.00
  WS02004402WS02004403    1.00   0.02  0.00  0.00  0.97  0.00  0.00  0.00  0.00  0.00
  WS02004403WS02004404    1.00   0.00  0.03  0.00  0.97  0.00  0.00  0.00  0.00  0.00
  WS02004404WS02004405    1.00   0.00  0.00  0.00  1.00  0.00  0.00  0.00  0.00  0.00
  WS02004405WS02004406    1.00   0.00  0.00  0.00  1.00  0.00  0.00  0.00  0.00  0.00
  WS02004406WS02004407    1.00   0.00  0.04  0.00  0.96  0.00  0.00  0.00  0.00  0.00
  WS02004407WS02004409    1.00   0.04  0.00  0.00  0.95  0.01  0.00  0.00  0.95  0.00
  WS02004409WS02004410    1.00   0.04  0.00  0.00  0.96  0.00  0.00  0.00  0.00  0.00
  WS02004410WS02004411    1.00   0.04  0.00  0.00  0.96  0.00  0.00  0.00  0.00  0.00
  WS02004411WS02004412    1.00   0.04  0.00  0.00  0.96  0.00  0.00  0.00  0.00  0.00
  WS02004412WS02004413    1.00   0.04  0.00  0.00  0.95  0.00  0.00  0.00  0.00  0.00
  WS02004413WS02003067    1.00   0.04  0.01  0.00  0.00  0.00  0.94  0.00  0.00  0.00
  WS02006109WS02006110    1.00   0.00  0.01  0.00  0.98  0.00  0.01  0.00  0.00  0.00
  WS02006110WS02006113    1.00   0.01  0.01  0.00  0.98  0.00  0.00  0.00  0.00  0.00
  WS02006111WS02006112    1.00   0.02  0.00  0.00  0.98  0.00  0.00  0.00  0.98  0.00
  WS02006112WS02006115    1.00   0.02  0.00  0.00  0.97  0.00  0.00  0.00  0.00  0.00
  WS02006113WS02006111    1.00   0.02  0.00  0.00  0.00  0.98  0.00  0.00  0.17  0.00
  WS02006115WS02006116    1.00   0.02  0.00  0.00  0.97  0.00  0.00  0.01  0.00  0.00
  WS02006116WS02004401    1.00   0.02  0.00  0.00  0.98  0.00  0.00  0.00  0.00  0.00
  WS02006228WS02006109    1.00   0.00  0.00  0.00  1.00  0.00  0.00  0.00  0.00  0.00
  WS02006229WS02006228    1.00   0.00  0.00  0.00  0.99  0.00  0.00  0.01  0.00  0.00
  WS02006230WS02006229    1.00   0.00  0.00  0.00  0.99  0.00  0.00  0.01  0.02  0.00
  WS02006231WS02006230    1.00   0.00  0.00  0.00  0.29  0.00  0.70  0.00  0.00  0.00
  WS02006232WS02006231    1.00   0.00  0.00  0.00  0.99  0.00  0.01  0.00  0.00  0.00
  WS02006234WS02006232    1.00   0.00  0.00  0.00  1.00  0.00  0.00  0.00  0.18  0.00
  WS02006235WS02006234    1.00   0.00  0.00  0.00  0.77  0.00  0.22  0.00  0.00  0.00
  WS02006238WS02006235    1.00   0.00  0.00  0.00  1.00  0.00  0.00  0.00  0.00  0.00
  WS02006239WS02006238    1.00   0.00  0.00  0.00  1.00  0.00  0.00  0.00  0.28  0.00
  WS02006240WS02006239    1.00   0.00  0.00  0.00  0.66  0.00  0.00  0.33  0.01  0.00
  WS02006242WS02006240    1.00   0.00  0.00  0.00  0.99  0.00  0.01  0.00  0.00  0.00
  WS02006243WS02006242    1.00   0.00  0.00  0.00  0.99  0.00  0.00  0.01  0.42  0.00
  WS02006245WS02006243    1.00   0.00  0.00  0.00  0.72  0.00  0.00  0.27  0.01  0.00
  WS02006247WS02006245    1.00   0.00  0.00  0.00  0.98  0.00  0.00  0.02  0.00  0.00
  WS02006248WS02006247    1.00   0.00  0.00  0.00  0.99  0.00  0.00  0.01  0.18  0.00
  WS02006249WS02006248    1.00   0.00  0.00  0.00  0.60  0.00  0.40  0.00  0.00  0.00
  WS02006251WS02006249    1.00   0.00  0.00  0.00  1.00  0.00  0.00  0.00  0.43  0.00
  WS02006252WS02006251    1.00   0.00  0.39  0.00  0.15  0.00  0.47  0.00  0.00  0.00
  WS02006256WS02006235    1.00   0.00  0.00  0.00  1.00  0.00  0.00  0.00  0.00  0.00
  WSF200WS02003060        1.00   0.00  0.07  0.00  0.30  0.63  0.00  0.00  0.42  0.00
  YS02001580YS02001583    1.00   0.23  0.56  0.00  0.21  0.00  0.00  0.00  0.65  0.00
  YS02001583YS02001586    1.00   0.42  0.32  0.00  0.26  0.00  0.00  0.00  0.66  0.00
  YS02001586YS02001590    1.00   0.13  0.00  0.00  0.44  0.04  0.00  0.40  0.36  0.00
  YS02001590YS02001593    1.00   0.13  0.01  0.00  0.13  0.00  0.73  0.00  0.00  0.00
  YS02001593YS02001596    1.00   0.13  0.00  0.00  0.15  0.01  0.00  0.70  0.02  0.00
  YS02001596YS02001600    1.00   0.14  0.00  0.00  0.21  0.01  0.00  0.64  0.04  0.00
  YS02001600YS02001601    1.00   0.13  0.01  0.00  0.86  0.00  0.00  0.00  0.60  0.00
  YS02001601YS02001602    1.00   0.13  0.01  0.00  0.87  0.00  0.00  0.00  0.00  0.00
  YS02001602YS02001605    1.00   0.13  0.00  0.00  0.86  0.00  0.00  0.00  0.00  0.00
  YS02001605YS02001607    1.00   0.14  0.00  0.00  0.86  0.00  0.00  0.00  0.00  0.00
  YS02001607YS02001610    1.00   0.13  0.01  0.00  0.86  0.00  0.00  0.00  0.01  0.00
  YS02001610YS02001613    1.00   0.13  0.00  0.00  0.87  0.00  0.00  0.00  0.00  0.00
  YS02001613YS02001616    1.00   0.13  0.00  0.00  0.87  0.00  0.00  0.00  0.00  0.00
  YS02001616YS02001619    1.00   0.13  0.00  0.00  0.87  0.00  0.00  0.00  0.00  0.00
  YS02001619YS02001622    1.00   0.13  0.00  0.00  0.87  0.00  0.00  0.00  0.28  0.00
  YS02001622YS02001625    1.00   0.13  0.00  0.00  0.87  0.00  0.00  0.00  0.04  0.00
  YS02001625YS02001629    1.00   0.13  0.04  0.00  0.18  0.00  0.65  0.00  0.00  0.00
  YS02001629YS02163301    1.00   0.15  0.01  0.00  0.84  0.00  0.00  0.00  0.00  0.00
  YS02001633YS02163601    1.00   0.00  0.01  0.00  0.99  0.00  0.00  0.00  0.15  0.00
  YS02001641YS02001644    1.00   0.00  0.01  0.00  0.99  0.00  0.00  0.00  0.00  0.00
  YS02001644YS02001647    1.00   0.00  0.17  0.00  0.83  0.00  0.00  0.00  0.00  0.00
  YS02001647YS02001649    1.00   0.00  0.17  0.00  0.56  0.27  0.00  0.00  0.56  0.00
  YS02001649YS02001757    1.00   0.00  0.00  0.00  0.83  0.17  0.00  0.00  0.39  0.00
  YS02001652YS02001649    1.00   0.00  0.00  0.00  0.97  0.03  0.00  0.00  0.73  0.00
  YS02001655YS02001652    1.00   0.00  0.00  0.00  0.20  0.01  0.00  0.79  0.04  0.00
  YS02001658YS02001655    1.00   0.00  0.14  0.00  0.68  0.18  0.00  0.00  0.66  0.00
  YS02001661YS02001658    1.00   0.14  0.00  0.00  0.52  0.34  0.00  0.00  0.67  0.00
  YS02001664YS02001661    1.00   0.13  0.00  0.00  0.77  0.10  0.00  0.00  0.85  0.00
  YS02001745YS02001748    1.00   0.00  0.00  0.00  0.12  0.01  0.00  0.87  0.05  0.00
  YS02001748YS02001751    1.00   0.00  0.00  0.00  0.84  0.16  0.00  0.00  0.75  0.00
  YS02001751YS02001754    1.00   0.00  0.00  0.00  0.18  0.01  0.00  0.82  0.03  0.00
  YS02001754YS02001757    1.00   0.00  0.00  0.00  1.00  0.00  0.00  0.00  0.81  0.00
  YS02001757CaochengTiaoxuchi    1.00   0.00  0.00  0.00  0.97  0.03  0.00  0.00  0.65  0.00
  YS02001759YS02001757    1.00   0.00  0.00  0.00  1.00  0.00  0.00  0.00  0.53  0.00
  YS02001762YS02001759    1.00   0.00  0.00  0.00  1.00  0.00  0.00  0.00  0.05  0.00
  YS02001765YS02001762    1.00   0.00  0.00  0.00  1.00  0.00  0.00  0.00  0.69  0.00
  YS02001767YS02001765    1.00   0.00  0.00  0.00  1.00  0.00  0.00  0.00  0.01  0.00
  YS02001770YS02001767    1.00   0.00  0.00  0.00  1.00  0.00  0.00  0.00  0.00  0.00
  YS02001774YS02001770    1.00   0.00  0.13  0.00  0.70  0.00  0.16  0.00  0.03  0.00
  YS02001779YS02001774    1.00   0.00  0.00  0.00  1.00  0.00  0.00  0.00  0.76  0.00
  YS02001783YS02001784    1.00   0.00  0.18  0.00  0.82  0.00  0.00  0.00  0.55  0.00
  YS02001784YS02001785    1.00   0.00  0.00  0.00  1.00  0.00  0.00  0.00  0.16  0.00
  YS02001786YS02001788    1.00   0.00  0.00  0.00  0.79  0.21  0.00  0.00  0.00  0.00
  YS02001788YS02001790    1.00   0.00  0.00  0.00  0.22  0.78  0.00  0.00  0.80  0.00
  YS02001790YS02001791    1.00   0.00  0.00  0.00  0.01  0.99  0.00  0.00  0.16  0.00
  YS02001791YS02001793    1.00   0.00  0.00  0.00  0.00  1.00  0.00  0.00  0.01  0.00
  YS02001793JiankangQianchi    1.00   0.00  0.00  0.00  0.97  0.03  0.00  0.00  0.96  0.00
  YS02001882YS02001884    1.00   0.15  0.01  0.00  0.84  0.00  0.00  0.00  0.00  0.00
  YS02001884YS02001887    1.00   0.06  0.05  0.00  0.89  0.00  0.00  0.00  0.00  0.00
  YS02001887YS02001890    1.00   0.00  0.00  0.00  0.97  0.00  0.03  0.00  0.00  0.00
  YS02001890YS02001895    1.00   0.00  0.16  0.00  0.84  0.00  0.00  0.00  0.00  0.00
  YS02001895YS02001898    1.00   0.16  0.00  0.00  0.82  0.00  0.02  0.00  0.00  0.00
  YS02001898YS02001901    1.00   0.16  0.00  0.00  0.84  0.00  0.00  0.00  0.01  0.00
  YS02001901YS02001904    1.00   0.16  0.00  0.00  0.84  0.00  0.00  0.00  0.00  0.00
  YS02001904YS02001907    1.00   0.00  0.16  0.00  0.84  0.00  0.00  0.00  0.00  0.00
  YS02001907YS02006553    1.00   0.00  0.02  0.00  0.98  0.00  0.00  0.00  0.00  0.00
  YS02001910YS02001907    1.00   0.00  0.00  0.00  0.97  0.00  0.00  0.03  0.12  0.00
  YS02001915YS02001910    1.00   0.00  0.00  0.00  0.97  0.03  0.00  0.00  0.15  0.00
  YS02001918YS02001915    1.00   0.00  0.01  0.00  0.98  0.02  0.00  0.00  0.74  0.00
  YS02001920YS02001918    1.00   0.00  0.01  0.00  0.99  0.00  0.00  0.00  0.00  0.00
  YS02001923YS02001920    1.00   0.00  0.00  0.00  1.00  0.00  0.00  0.00  0.91  0.00
  YS02001926YS02001923    1.00   0.00  0.07  0.00  0.07  0.00  0.86  0.00  0.00  0.00
  YS02001929YS02001926    1.00   0.00  0.13  0.00  0.87  0.00  0.00  0.00  0.81  0.00
  YS02006553YS02006556    1.00   0.01  0.00  0.00  0.99  0.00  0.00  0.00  0.03  0.00
  YS02006556YS02006558    1.00   0.00  0.00  0.00  1.00  0.00  0.00  0.00  0.00  0.00
  YS02006558YS02006561    1.00   0.17  0.00  0.00  0.06  0.76  0.00  0.00  0.18  0.00
  YS02006561YS02001783    1.00   0.17  0.00  0.00  0.10  0.73  0.00  0.00  0.68  0.00
  YS02163301YS02001633    1.00   0.00  0.15  0.00  0.85  0.00  0.00  0.00  0.00  0.00
  YS02163601YS02164001    1.00   0.00  0.08  0.00  0.92  0.00  0.00  0.00  0.00  0.00
  YS02164001YS02001641    1.00   0.01  0.07  0.00  0.92  0.00  0.00  0.00  0.05  0.00
  
  
  *************************
  Conduit Surcharge Summary
  *************************
  
  ----------------------------------------------------------------------------
                                                           Hours        Hours 
                         --------- Hours Full --------   Above Full   Capacity
  Conduit                Both Ends  Upstream  Dnstream   Normal Flow   Limited
  ----------------------------------------------------------------------------
  WS02003072WS02003073        0.01      0.01      0.01      1.34         0.01
  WS02004404WS02004405        0.01      0.01      0.01      4.38         0.01
  WS02004405WS02004406        0.01      0.01      0.01      0.97         0.01
  WS02006109WS02006110        1.01      1.01      2.11      1.10         0.01
  WS02006110WS02006113        0.01      0.01      2.08      0.01         0.01
  WS02006111WS02006112        0.01      0.01      2.69      0.01         0.01
  WS02006112WS02006115        0.01      0.01      1.02      0.01         0.01
  WS02006228WS02006109        2.00      2.11      2.00      3.04         2.00
  WS02006229WS02006228        1.99      2.02      1.99      2.52         1.98
  WS02006230WS02006229        2.23      2.44      2.23      4.78         2.23
  WS02006231WS02006230        1.01      1.01      1.14      4.55         0.01
  WS02006232WS02006231        1.11      1.11      2.13      1.20         0.01
  WS02006234WS02006232        1.98      1.99      2.13      1.17         1.16
  WS02006235WS02006234        1.42      1.42      2.01      4.47         0.01
  WS02006238WS02006235        2.04      2.04      2.14      0.01         0.01
  WS02006239WS02006238        2.08      2.12      2.08      2.27         1.83
  WS02006240WS02006239        2.00      2.03      2.02      2.25         1.65
  WS02006242WS02006240        1.97      1.97      2.22      2.62         0.01
  WS02006243WS02006242        1.98      1.98      2.11      0.01         0.03
  WS02006245WS02006243        1.95      1.97      1.96      1.27         1.06
  WS02006247WS02006245        1.95      2.00      1.95      4.23         1.94
  WS02006248WS02006247        1.95      1.95      1.98      0.01         0.03
  WS02006249WS02006248        1.93      1.93      1.96      4.22         0.01
  WS02006251WS02006249        1.95      1.96      1.96      2.44         1.91
  WS02006252WS02006251        2.53      2.53      2.53      2.53         0.01
  WS02006256WS02006235        4.48      4.51      5.81      1.45         0.01
  YS02001580YS02001583        0.70      0.70      0.76      0.01         0.01
  YS02001583YS02001586        0.71      0.71      0.85      0.01         0.01
  YS02001586YS02001590        0.86      0.86      0.93      0.01         0.01
  YS02001590YS02001593        0.94      0.94      0.95      0.98         0.01
  YS02001593YS02001596        0.94      0.94      1.06      0.01         0.01
  YS02001596YS02001600        1.11      1.11      1.22      0.01         0.01
  YS02001600YS02001601        1.29      1.29      1.53      0.01         0.01
  YS02001601YS02001602        1.44      1.44      1.57      1.21         0.01
  YS02001602YS02001605        1.40      1.40      1.44      2.33         0.01
  YS02001605YS02001607        1.36      1.40      1.36      1.50         1.36
  YS02001607YS02001610        0.93      0.93      0.96      0.01         0.01
  YS02001610YS02001613        0.92      0.92      0.96      0.01         0.01
  YS02001613YS02001616        0.88      0.88      0.92      0.01         0.01
  YS02001616YS02001619        0.87      0.87      0.88      0.01         0.03
  YS02001619YS02001622        0.87      0.87      0.87      0.91         0.80
  YS02001622YS02001625        0.87      0.87      1.06      0.01         0.01
  YS02001625YS02001629        0.82      0.82      1.06      0.01         0.01
  YS02001629YS02163301        1.06      1.06      1.07      0.06         0.15
  YS02001633YS02163601        1.09      1.09      1.13      0.32         0.30
  YS02001641YS02001644        1.01      1.04      1.01      1.60         0.99
  YS02001644YS02001647        0.78      0.78      1.01      0.03         0.01
  YS02001647YS02001649        0.78      0.78      0.93      0.01         0.01
  YS02001649YS02001757        0.92      0.93      1.00      0.09         0.04
  YS02001652YS02001649        0.74      0.74      0.93      0.01         0.01
  YS02001655YS02001652        0.53      0.53      0.72      0.01         0.01
  YS02001658YS02001655        0.28      0.28      0.53      0.01         0.01
  YS02001661YS02001658        0.06      0.06      0.28      0.01         0.01
  YS02001664YS02001661        0.01      0.01      0.13      0.01         0.01
  YS02001745YS02001748        0.01      0.01      0.22      0.01         0.01
  YS02001748YS02001751        0.25      0.25      0.39      0.01         0.01
  YS02001751YS02001754        0.39      0.39      0.62      0.01         0.01
  YS02001754YS02001757        0.67      0.67      1.00      0.01         0.01
  YS02001757CaochengTiaoxuchi        0.99      1.00      1.76      0.41         0.36
  YS02001759YS02001757        0.91      0.91      1.00      0.01         0.01
  YS02001762YS02001759        0.87      0.87      0.91      0.01         0.02
  YS02001765YS02001762        0.82      0.82      0.87      0.01         0.01
  YS02001767YS02001765        0.78      0.78      0.82      0.01         0.02
  YS02001770YS02001767        0.78      0.78      0.78      0.60         0.53
  YS02001774YS02001770        0.76      0.76      0.85      0.01         0.01
  YS02001779YS02001774        0.61      0.61      0.85      0.01         0.01
  YS02001783YS02001784        0.58      0.61      0.58      0.76         0.58
  YS02001784YS02001785        0.47      0.58      0.47      1.02         0.47
  YS02001786YS02001788        0.01      0.47      0.01      0.87         0.01
  YS02001790YS02001791        0.01      0.01      0.01      0.56         0.01
  YS02001793JiankangQianchi        0.01      0.01      7.44      0.01         0.01
  YS02001882YS02001884        0.55      0.55      0.56      0.01         0.01
  YS02001884YS02001887        0.58      0.58      0.59      0.01         0.01
  YS02001887YS02001890        0.61      0.61      0.62      0.14         0.01
  YS02001890YS02001895        0.54      0.54      0.64      0.01         0.01
  YS02001895YS02001898        0.53      0.53      0.54      0.01         0.01
  YS02001898YS02001901        0.54      0.54      0.58      0.01         0.01
  YS02001901YS02001904        0.57      0.57      0.58      0.01         0.01
  YS02001904YS02001907        0.57      0.57      0.86      0.01         0.01
  YS02001907YS02006553        1.04      1.04      1.12      0.01         0.01
  YS02001910YS02001907        0.64      0.64      0.84      0.01         0.01
  YS02001915YS02001910        0.54      0.54      0.64      0.01         0.01
  YS02001918YS02001915        0.46      0.46      0.54      0.01         0.01
  YS02001920YS02001918        0.45      0.46      0.47      0.01         0.01
  YS02001923YS02001920        0.41      0.41      0.47      0.01         0.01
  YS02001926YS02001923        0.14      0.14      0.17      0.01         0.01
  YS02001929YS02001926        0.01      0.01      0.17      0.01         0.01
  YS02006553YS02006556        0.74      0.74      0.85      0.01         0.01
  YS02006556YS02006558        0.79      0.79      0.88      0.01         0.01
  YS02006558YS02006561        0.49      0.73      0.49      0.97         0.49
  YS02006561YS02001783        0.42      0.42      0.61      0.01         0.01
  YS02163301YS02001633        1.07      1.07      1.11      0.01         0.01
  YS02163601YS02164001        1.04      1.04      1.13      0.08         0.01
  YS02164001YS02001641        1.04      1.04      1.04      0.73         0.70
  
  
  ***************
  Pumping Summary
  ***************
  
  ---------------------------------------------------------------------------------------------------------
                                                  Min       Avg       Max     Total     Power    % Time Off
                        Percent   Number of      Flow      Flow      Flow    Volume     Usage    Pump Curve
  Pump                 Utilized   Start-Ups       LPS       LPS       LPS  10^6 ltr     Kw-hr    Low   High
  ---------------------------------------------------------------------------------------------------------
  CC-R1                   19.05           4      0.00    683.00    683.00     3.746     70.86    0.0   12.0
  CC-R2                   17.08           5      0.00    683.00    683.00     3.360     64.12    0.0    7.3
  CC-S1                   47.01          13      0.00    200.00    200.00     2.708     16.20    0.0    0.0
  CC-S2                   37.93          13      0.00    200.00    200.00     2.185     13.02    0.0    0.0
  JK-R1                    4.55          11      0.00   1000.00   1000.00     1.310     14.29    0.0    0.0
  JK-R2                    5.40          12      0.00   1000.00   1000.00     1.557     14.47    0.0    0.0
  JK-S                    18.07          13      0.00    300.00    300.00     1.561     26.13    0.0    0.0
  

  Analysis begun on:  Wed Jan 15 10:21:40 2025
  Analysis ended on:  Wed Jan 15 10:21:42 2025
  Total elapsed time: 00:00:02