
  EPA STORM WATER MANAGEMENT MODEL - VERSION 5.2 (Build 5.2.4)
  PYSWMM TOOLKIT API - VERSION v1.0 (2023-11-27)
  ------------------------------------------------------------

  WARNING 04: minimum elevation drop used for Conduit WS02004404WS02004405
  WARNING 03: negative offset ignored for Link YS02001904YS02001907
  
  ****************
  Analysis Options
  ****************
  Flow Units ............... LPS
  Process Models:
    Rainfall/Runoff ........ YES
    RDII ................... NO
    Snowmelt ............... NO
    Groundwater ............ NO
    Flow Routing ........... YES
    Ponding Allowed ........ NO
    Water Quality .......... NO
  Infiltration Method ...... HORTON
  Flow Routing Method ...... DYNWAVE
  Surcharge Method ......... EXTRAN
  Starting Date ............ 08/28/2015 08:00:00
  Ending Date .............. 08/28/2015 16:00:00
  Antecedent Dry Days ...... 8.0
  Report Time Step ......... 00:01:00
  Wet Time Step ............ 00:01:00
  Dry Time Step ............ 00:01:00
  Routing Time Step ........ 30.00 sec
  Variable Time Step ....... YES
  Maximum Trials ........... 8
  Number of Threads ........ 4
  Head Tolerance ........... 0.001500 m
  
  
  **************************        Volume         Depth
  Runoff Quantity Continuity     hectare-m            mm
  **************************     ---------       -------
  Total Precipitation ......         2.039        61.484
  Evaporation Loss .........         0.000         0.000
  Infiltration Loss ........         0.100         3.007
  Surface Runoff ...........         1.907        57.497
  Final Storage ............         0.033         0.995
  Continuity Error (%) .....        -0.025
  
  
  **************************        Volume        Volume
  Flow Routing Continuity        hectare-m      10^6 ltr
  **************************     ---------     ---------
  Dry Weather Inflow .......         0.025         0.251
  Wet Weather Inflow .......         1.907        19.070
  Groundwater Inflow .......         0.000         0.000
  RDII Inflow ..............         0.000         0.000
  External Inflow ..........         0.083         0.834
  External Outflow .........         1.455        14.555
  Flooding Loss ............         0.624         6.239
  Evaporation Loss .........         0.000         0.000
  Exfiltration Loss ........         0.000         0.000
  Initial Stored Volume ....         0.243         2.431
  Final Stored Volume ......         0.185         1.855
  Continuity Error (%) .....        -0.284
  
  
  *************************
  Highest Continuity Errors
  *************************
  Node YS02001583 (-6.26%)
  Node YS02001884 (5.24%)
  
  
  ***************************
  Time-Step Critical Elements
  ***************************
  Link WS02006252WS02006251 (58.16%)
  Link WS02004404WS02004405 (11.82%)
  Link WS02006238WS02006235 (11.20%)
  Link YS02001791YS02001793 (5.13%)
  Link WS02006235WS02006234 (4.90%)
  
  
  ********************************
  Highest Flow Instability Indexes
  ********************************
  Link WS02006113WS02006111 (55)
  Link WS02006111WS02006112 (26)
  Link WS02004404WS02004405 (19)
  Link WS02004403WS02004404 (17)
  Link WS02004405WS02004406 (15)
  
  
  *********************************
  Most Frequent Nonconverging Nodes
  *********************************
  Node CC-1 (6.53%)
  Node CC-2 (6.53%)
  Node JK-1 (6.53%)
  Node JK-2 (6.53%)
  Node WSC (6.53%)
  
  
  *************************
  Routing Time Step Summary
  *************************
  Minimum Time Step           :     0.01 sec
  Average Time Step           :     1.65 sec
  Maximum Time Step           :     7.04 sec
  % of Time in Steady State   :     0.00
  Average Iterations per Step :     2.70
  % of Steps Not Converging   :     6.53
  Time Step Frequencies       :
     30.000 - 13.228 sec      :     0.00 %
     13.228 -  5.833 sec      :     6.96 %
      5.833 -  2.572 sec      :    12.77 %
      2.572 -  1.134 sec      :    18.00 %
      1.134 -  0.500 sec      :    62.27 %
  
  
  ***************************
  Subcatchment Runoff Summary
  ***************************
  
  ------------------------------------------------------------------------------------------------------------------------------
                            Total      Total      Total      Total     Imperv       Perv      Total       Total     Peak  Runoff
                           Precip      Runon       Evap      Infil     Runoff     Runoff     Runoff      Runoff   Runoff   Coeff
  Subcatchment                 mm         mm         mm         mm         mm         mm         mm    10^6 ltr      LPS
  ------------------------------------------------------------------------------------------------------------------------------
  sub60                     61.48       0.00       0.00       1.77      52.91       5.61      58.51        0.77   608.72   0.952
  sub61                     61.48       0.00       0.00       2.58      49.90       7.87      57.78        1.06   846.49   0.940
  sub62                     61.48       0.00       0.00       1.18      55.28       3.74      59.02        1.62  1188.44   0.960
  sub63                     61.48       0.00       0.00       4.82      42.69      13.01      55.70        1.26   961.60   0.906
  sub64                     61.48       0.00       0.00       2.43      51.06       6.79      57.85        1.39   971.14   0.941
  sub65                     61.48       0.00       0.00       2.10      52.24       5.89      58.13        1.60  1082.48   0.945
  sub66                     61.48       0.00       0.00       6.04      42.58      11.79      54.37        2.54  1438.07   0.884
  sub67                     61.48       0.00       0.00       1.13      55.32       3.79      59.11        1.10   908.48   0.961
  sub68                     61.48       0.00       0.00       2.14      51.69       6.47      58.16        1.60  1221.71   0.946
  sub69                     61.48       0.00       0.00       1.93      52.15       7.30      59.45        2.20  1436.92   0.967
  sub70                     61.48       0.00       0.00       6.53      40.41      14.37      54.79        1.58   804.70   0.891
  sub71                     61.48       0.00       0.00       1.22      55.24       3.70      58.94        1.54  1045.95   0.959
  sub72                     61.48       0.00       0.00       1.09      55.78       3.22      58.99        0.81   506.97   0.960
  
  
  ******************
  Node Depth Summary
  ******************
  
  ---------------------------------------------------------------------------------
                                 Average  Maximum  Maximum  Time of Max    Reported
                                   Depth    Depth      HGL   Occurrence   Max Depth
  Node                 Type       Meters   Meters   Meters  days hr:min      Meters
  ---------------------------------------------------------------------------------
  WS02003060           JUNCTION     0.25     0.39     5.32     0  02:36        0.38
  WS02003066           JUNCTION     0.21     0.30     5.85     0  02:35        0.30
  WS02003067           JUNCTION     0.53     0.70     6.02     0  02:35        0.70
  WS02003069           JUNCTION     0.28     0.43     5.02     0  02:37        0.43
  WS02003072           JUNCTION     0.35     0.50     4.87     0  02:37        0.50
  WS02003073           JUNCTION     0.20     0.30     4.36     0  02:38        0.30
  WS02004401           JUNCTION     0.62     0.88     6.88     0  02:39        0.88
  WS02004402           JUNCTION     0.66     0.91     6.87     0  02:37        0.90
  WS02004403           JUNCTION     0.68     0.92     6.85     0  02:37        0.92
  WS02004404           JUNCTION     0.76     1.06     6.91     0  02:31        1.02
  WS02004405           JUNCTION     0.74     0.97     6.82     0  02:33        0.97
  WS02004406           JUNCTION     0.75     0.96     6.79     0  02:33        0.96
  WS02004407           JUNCTION     0.19     0.30     6.61     0  02:33        0.30
  WS02004409           JUNCTION     0.42     0.67     6.44     0  02:34        0.67
  WS02004410           JUNCTION     0.45     0.68     6.40     0  02:34        0.68
  WS02004411           JUNCTION     0.47     0.69     6.37     0  02:34        0.69
  WS02004412           JUNCTION     0.49     0.70     6.34     0  02:35        0.70
  WS02004413           JUNCTION     0.65     0.86     6.33     0  02:35        0.86
  WS02006109           JUNCTION     0.67     1.12     7.74     0  02:47        1.00
  WS02006110           JUNCTION     0.67     1.14     7.73     0  02:47        0.93
  WS02006111           JUNCTION     0.19     0.29     6.99     0  02:23        0.29
  WS02006112           JUNCTION     0.78     1.09     6.97     0  02:26        1.08
  WS02006113           JUNCTION     0.29     0.46     7.35     0  03:58        0.45
  WS02006115           JUNCTION     0.51     0.78     6.92     0  02:32        0.78
  WS02006116           JUNCTION     0.59     0.86     6.90     0  02:38        0.86
  WS02006228           JUNCTION     0.66     1.14     7.79     0  02:46        1.10
  WS02006229           JUNCTION     0.63     1.16     7.86     0  02:46        1.12
  WS02006230           JUNCTION     0.63     1.31     8.06     0  02:46        1.27
  WS02006231           JUNCTION     0.44     1.05     8.18     0  02:46        1.03
  WS02006232           JUNCTION     0.58     1.24     8.28     0  02:47        1.24
  WS02006234           JUNCTION     0.49     1.26     8.41     0  02:47        1.26
  WS02006235           JUNCTION     0.53     1.35     8.51     0  02:47        1.33
  WS02006238           JUNCTION     0.56     1.38     8.52     0  02:47        1.37
  WS02006239           JUNCTION     0.53     1.36     8.57     0  02:46        1.34
  WS02006240           JUNCTION     0.49     1.31     8.61     0  02:46        1.28
  WS02006242           JUNCTION     0.56     1.55     8.82     0  02:12        1.33
  WS02006243           JUNCTION     0.46     1.26     8.68     0  02:46        1.21
  WS02006245           JUNCTION     0.46     1.21     8.70     0  02:46        1.20
  WS02006247           JUNCTION     0.48     1.20     8.70     0  03:38        1.20
  WS02006248           JUNCTION     0.44     1.10     8.69     0  02:46        1.10
  WS02006249           JUNCTION     0.48     1.09     8.69     0  01:52        1.09
  WS02006251           JUNCTION     0.47     1.36     9.03     0  02:13        1.14
  WS02006252           JUNCTION     0.36     1.50     9.74     0  00:00        0.72
  WS02006256           JUNCTION     0.97     2.35     9.28     0  00:00        2.35
  WSF200               JUNCTION     0.18     0.29     5.53     0  02:36        0.29
  YS02001580           JUNCTION     0.06     1.05     9.59     0  02:13        0.77
  YS02001583           JUNCTION     0.09     1.14     9.64     0  02:13        0.82
  YS02001586           JUNCTION     0.14     1.13     9.30     0  02:13        1.13
  YS02001590           JUNCTION     0.23     1.40     9.26     0  02:13        1.38
  YS02001593           JUNCTION     0.16     1.34     9.20     0  02:13        1.29
  YS02001596           JUNCTION     0.22     1.69     9.11     0  02:13        1.65
  YS02001600           JUNCTION     0.27     1.87     9.00     0  02:13        1.87
  YS02001601           JUNCTION     0.45     2.06     8.90     0  02:12        2.06
  YS02001602           JUNCTION     0.37     1.87     8.77     0  02:15        1.87
  YS02001605           JUNCTION     0.34     1.78     8.68     0  02:24        1.78
  YS02001607           JUNCTION     0.35     1.65     8.50     0  02:41        1.65
  YS02001610           JUNCTION     0.40     1.68     8.48     0  02:16        1.68
  YS02001613           JUNCTION     0.36     1.67     8.51     0  02:16        1.67
  YS02001616           JUNCTION     0.29     1.61     8.52     0  02:16        1.61
  YS02001619           JUNCTION     0.26     1.61     8.54     0  02:19        1.61
  YS02001622           JUNCTION     0.25     1.61     8.51     0  02:19        1.61
  YS02001625           JUNCTION     0.53     1.78     8.38     0  02:16        1.78
  YS02001629           JUNCTION     0.36     1.85     8.40     0  02:16        1.85
  YS02001633           JUNCTION     0.44     2.08     8.53     0  02:19        2.08
  YS02001641           JUNCTION     0.43     2.05     8.49     0  02:19        1.97
  YS02001644           JUNCTION     0.43     1.92     8.35     0  02:19        1.92
  YS02001647           JUNCTION     0.22     1.76     8.37     0  02:23        1.75
  YS02001649           JUNCTION     0.25     1.99     8.38     0  02:23        1.97
  YS02001652           JUNCTION     0.16     1.86     8.46     0  02:20        1.81
  YS02001655           JUNCTION     0.12     1.68     8.53     0  02:20        1.60
  YS02001658           JUNCTION     0.09     2.17     9.31     0  02:20        1.37
  YS02001661           JUNCTION     0.13     1.27     8.67     0  02:23        1.15
  YS02001664           JUNCTION     0.04     0.64     8.56     0  02:24        0.60
  YS02001745           JUNCTION     0.05     0.84     8.36     0  02:24        0.83
  YS02001748           JUNCTION     0.08     1.42     8.50     0  02:20        1.26
  YS02001751           JUNCTION     0.10     1.46     8.34     0  02:19        1.44
  YS02001754           JUNCTION     0.14     1.70     8.31     0  02:24        1.70
  YS02001757           JUNCTION     0.27     2.05     8.31     0  02:24        2.05
  YS02001759           JUNCTION     0.22     2.18     8.55     0  02:24        2.18
  YS02001762           JUNCTION     0.21     2.15     8.55     0  02:19        2.15
  YS02001765           JUNCTION     0.19     2.10     8.55     0  02:19        2.10
  YS02001767           JUNCTION     0.19     2.03     8.52     0  02:19        2.03
  YS02001770           JUNCTION     0.20     1.95     8.44     0  02:19        1.95
  YS02001774           JUNCTION     0.27     2.05     8.47     0  02:19        2.05
  YS02001779           JUNCTION     0.12     1.68     8.37     0  02:18        1.68
  YS02001783           JUNCTION     0.18     1.29     7.43     0  02:17        1.24
  YS02001784           JUNCTION     0.20     1.16     7.23     0  02:17        1.13
  YS02001786           JUNCTION     0.17     0.91     6.94     0  02:17        0.87
  YS02001788           JUNCTION     0.12     0.62     6.60     0  02:23        0.62
  YS02001790           JUNCTION     0.15     0.73     6.37     0  02:22        0.72
  YS02001791           JUNCTION     0.09     0.44     5.91     0  02:24        0.44
  YS02001793           JUNCTION     0.05     0.26     5.10     0  02:21        0.26
  YS02001882           JUNCTION     0.24     1.81     8.52     0  02:24        1.81
  YS02001884           JUNCTION     0.34     1.93     8.55     0  02:24        1.93
  YS02001887           JUNCTION     0.41     2.00     8.54     0  02:24        2.00
  YS02001890           JUNCTION     0.44     1.81     8.32     0  02:17        1.81
  YS02001895           JUNCTION     0.21     1.57     8.32     0  02:19        1.57
  YS02001898           JUNCTION     0.22     1.57     8.31     0  02:19        1.57
  YS02001901           JUNCTION     0.34     1.70     8.31     0  02:19        1.70
  YS02001904           JUNCTION     0.32     1.64     8.27     0  02:28        1.64
  YS02001907           JUNCTION     0.65     1.96     8.25     0  02:17        1.96
  YS02001910           JUNCTION     0.44     2.02     8.52     0  02:24        2.02
  YS02001915           JUNCTION     0.24     2.00     8.72     0  02:24        2.00
  YS02001918           JUNCTION     0.12     1.81     8.88     0  02:18        1.64
  YS02001920           JUNCTION     0.20     2.08     9.09     0  02:18        1.63
  YS02001923           JUNCTION     0.09     1.99     9.25     0  02:18        1.33
  YS02001926           JUNCTION     0.13     1.90     9.35     0  02:18        1.16
  YS02001929           JUNCTION     0.07     1.78     9.47     0  02:18        0.92
  YS02006553           JUNCTION     0.65     2.01     8.30     0  02:24        2.01
  YS02006556           JUNCTION     0.62     2.06     8.37     0  02:24        2.06
  YS02006558           JUNCTION     0.67     2.19     8.46     0  02:24        2.19
  YS02006561           JUNCTION     0.11     0.99     7.65     0  02:17        0.90
  YS02163301           JUNCTION     0.38     1.97     8.49     0  02:19        1.96
  YS02163601           JUNCTION     0.48     2.08     8.48     0  02:19        2.08
  YS02164001           JUNCTION     0.42     2.08     8.53     0  02:19        2.03
  CC-1                 OUTFALL      0.00     0.00     0.00     0  00:00        0.00
  CC-2                 OUTFALL      0.00     0.00     0.00     0  00:00        0.00
  JK-1                 OUTFALL      0.00     0.00     0.00     0  00:00        0.00
  JK-2                 OUTFALL      0.00     0.00     0.00     0  00:00        0.00
  WSC                  OUTFALL      0.20     0.30     0.97     0  02:38        0.30
  CC-storage           STORAGE      0.81     1.58     7.08     0  02:46        1.58
  JK-storage           STORAGE      2.92     4.22     5.02     0  02:39        4.20
  
  
  *******************
  Node Inflow Summary
  *******************
  
  -------------------------------------------------------------------------------------------------
                                  Maximum  Maximum                  Lateral       Total        Flow
                                  Lateral    Total  Time of Max      Inflow      Inflow     Balance
                                   Inflow   Inflow   Occurrence      Volume      Volume       Error
  Node                 Type           LPS      LPS  days hr:min    10^6 ltr    10^6 ltr     Percent
  -------------------------------------------------------------------------------------------------
  WS02003060           JUNCTION     16.53   558.05     0  02:36       0.476        6.14       0.032
  WS02003066           JUNCTION      0.00   541.09     0  02:35           0        5.67       0.022
  WS02003067           JUNCTION      0.00   541.02     0  02:35           0        5.67       0.071
  WS02003069           JUNCTION      0.32   557.92     0  02:36     0.00922        6.15       0.057
  WS02003072           JUNCTION      0.00   557.45     0  02:37           0        6.14       0.105
  WS02003073           JUNCTION      1.82   559.10     0  02:37      0.0524        6.19       0.083
  WS02004401           JUNCTION      0.00   541.29     0  02:32           0        5.76       0.172
  WS02004402           JUNCTION      0.00   541.92     0  02:28           0        5.75       0.176
  WS02004403           JUNCTION      0.00   542.67     0  02:34           0        5.74       0.170
  WS02004404           JUNCTION      0.16   562.94     0  02:44     0.00467        5.73       0.127
  WS02004405           JUNCTION      0.04   607.82     0  02:36      0.0011        5.73       0.114
  WS02004406           JUNCTION      0.00   549.87     0  02:33           0        5.72       0.355
  WS02004407           JUNCTION      0.00   543.09     0  02:33           0         5.7       0.016
  WS02004409           JUNCTION      0.00   542.10     0  02:33           0         5.7       0.040
  WS02004410           JUNCTION      0.00   541.87     0  02:34           0         5.7       0.070
  WS02004411           JUNCTION      0.00   541.70     0  02:34           0        5.69       0.091
  WS02004412           JUNCTION      0.00   541.41     0  02:35           0        5.69       0.125
  WS02004413           JUNCTION      0.00   541.50     0  02:35           0        5.68       0.223
  WS02006109           JUNCTION      1.23   554.82     0  02:47      0.0354         5.8       0.144
  WS02006110           JUNCTION      0.00   556.07     0  03:57           0        5.79       0.107
  WS02006111           JUNCTION      0.00   561.94     0  03:59           0        5.79       0.011
  WS02006112           JUNCTION      0.00   543.33     0  02:49           0        5.79       0.296
  WS02006113           JUNCTION      0.00   568.52     0  03:57           0        5.79       0.028
  WS02006115           JUNCTION      0.00   548.35     0  02:26           0        5.77       0.107
  WS02006116           JUNCTION      0.00   541.50     0  02:38           0        5.76       0.037
  WS02006228           JUNCTION      0.00   553.98     0  02:47           0        5.77       0.054
  WS02006229           JUNCTION      0.00   554.62     0  02:47           0        5.77       0.072
  WS02006230           JUNCTION     10.28   583.58     0  02:46       0.296        5.78       0.077
  WS02006231           JUNCTION      0.00   580.66     0  02:46           0        5.48       0.016
  WS02006232           JUNCTION      0.00   579.97     0  02:46           0        5.49       0.095
  WS02006234           JUNCTION      0.00   575.62     0  02:46           0        5.48      -0.104
  WS02006235           JUNCTION      0.00   568.05     0  02:46           0        5.53       0.126
  WS02006238           JUNCTION      0.00   423.49     0  02:45           0        4.52      -0.154
  WS02006239           JUNCTION      0.00   422.14     0  02:45           0        4.49      -0.139
  WS02006240           JUNCTION      0.00   419.81     0  03:08           0        4.47      -0.029
  WS02006242           JUNCTION      0.00   420.08     0  03:08           0        4.46      -0.011
  WS02006243           JUNCTION      0.00   419.47     0  03:08           0        4.45      -0.129
  WS02006245           JUNCTION      0.00   419.36     0  02:45           0        4.46       0.291
  WS02006247           JUNCTION      0.00   420.17     0  02:45           0        4.45      -0.010
  WS02006248           JUNCTION      0.00   419.82     0  02:45           0        4.45       0.006
  WS02006249           JUNCTION      0.00   459.02     0  00:00           0        4.73       0.323
  WS02006251           JUNCTION      0.08   446.61     0  01:30     0.00222        4.73      -0.025
  WS02006252           JUNCTION      0.00   400.00     0  00:00           0        4.72      -0.110
  WS02006256           JUNCTION      0.00   300.00     0  00:00           0        1.49      -0.633
  WSF200               JUNCTION      0.00   541.18     0  02:35           0        5.66       0.006
  YS02001580           JUNCTION      0.00    78.12     0  02:13           0     0.00395       0.084
  YS02001583           JUNCTION      0.00   136.99     0  02:13           0       0.015      -5.890
  YS02001586           JUNCTION    804.70   804.78     0  02:26        1.58        1.59       0.068
  YS02001590           JUNCTION      0.00   318.50     0  02:26           0        1.23      -0.037
  YS02001593           JUNCTION      0.00   318.95     0  02:41           0        1.23       0.007
  YS02001596           JUNCTION      0.00   318.57     0  02:41           0        1.23      -0.014
  YS02001600           JUNCTION      0.00   318.21     0  02:26           0        1.23       0.021
  YS02001601           JUNCTION   1436.92  1754.24     0  02:25         2.2        3.43       0.028
  YS02001602           JUNCTION      0.00   502.53     0  02:12           0        2.13       0.022
  YS02001605           JUNCTION      0.00   502.39     0  02:12           0        2.03       0.030
  YS02001607           JUNCTION      0.00   501.96     0  02:12           0        2.03       0.096
  YS02001610           JUNCTION      0.00   797.38     0  02:26           0        2.26       0.105
  YS02001613           JUNCTION      0.00   500.31     0  02:12           0        1.84       0.095
  YS02001616           JUNCTION      0.00   499.93     0  02:12           0        1.84       0.021
  YS02001619           JUNCTION   1438.07  1438.07     0  02:26        2.53        4.14      -0.000
  YS02001622           JUNCTION      0.00   988.30     0  02:25           0        3.91       0.000
  YS02001625           JUNCTION      0.00  1393.79     0  02:26           0        4.11       0.223
  YS02001629           JUNCTION      0.00   925.38     0  02:16           0        3.27       0.025
  YS02001633           JUNCTION   1082.68  1350.10     0  02:16        1.61        4.63       0.079
  YS02001641           JUNCTION      0.00  1347.64     0  02:16           0         4.4       0.065
  YS02001644           JUNCTION    971.18  1727.10     0  02:16        1.39        5.79       0.059
  YS02001647           JUNCTION      0.00  1730.84     0  02:17           0        5.34       0.010
  YS02001649           JUNCTION      0.00  1947.57     0  02:16           0        6.61       0.003
  YS02001652           JUNCTION      0.00   982.61     0  02:25           0        1.27      -0.112
  YS02001655           JUNCTION      0.15   982.48     0  02:25     0.00443        1.27      -0.029
  YS02001658           JUNCTION      0.00   982.47     0  02:25           0        1.26      -0.009
  YS02001661           JUNCTION      0.00   980.48     0  02:25           0        1.26       0.010
  YS02001664           JUNCTION    961.60   961.60     0  02:25        1.26        1.26      -0.006
  YS02001745           JUNCTION    608.73   608.73     0  02:25       0.769       0.769       0.173
  YS02001748           JUNCTION      0.04   616.80     0  02:25      0.0013       0.769      -0.290
  YS02001751           JUNCTION      0.01   617.95     0  02:25    0.000317       0.775       0.067
  YS02001754           JUNCTION      0.26   617.79     0  02:25     0.00749       0.786      -0.174
  YS02001757           JUNCTION      0.00  3307.57     0  02:24           0        9.89       0.027
  YS02001759           JUNCTION    846.53  1385.87     0  02:24        1.06        2.49      -0.014
  YS02001762           JUNCTION      0.00   743.13     0  02:21           0        1.43      -0.003
  YS02001765           JUNCTION      0.00   742.90     0  02:21           0        1.43      -0.008
  YS02001767           JUNCTION      0.54   744.12     0  02:21      0.0154        1.43      -0.002
  YS02001770           JUNCTION   1188.59  1188.59     0  02:25        1.62        1.66      -0.005
  YS02001774           JUNCTION      0.00   673.73     0  02:25           0       0.267       0.419
  YS02001779           JUNCTION      0.01   674.25     0  02:25    0.000144       0.223      -0.191
  YS02001783           JUNCTION      0.00  1169.80     0  02:24           0        3.73       0.007
  YS02001784           JUNCTION      1.06  1169.72     0  02:24      0.0305        3.76       0.014
  YS02001786           JUNCTION      0.06  1170.77     0  02:24     0.00162        3.76       0.018
  YS02001788           JUNCTION      0.07  1170.90     0  02:24     0.00204        3.76       0.008
  YS02001790           JUNCTION      0.15  1177.25     0  02:24     0.00446        3.77       0.020
  YS02001791           JUNCTION      0.00  1296.60     0  02:22           0        3.77      -0.026
  YS02001793           JUNCTION      0.00  1268.04     0  02:24           0        3.77       0.005
  YS02001882           JUNCTION      0.00    28.38     0  02:15           0      0.0126       4.798
  YS02001884           JUNCTION      0.00    62.21     0  02:14           0      0.0487       5.529
  YS02001887           JUNCTION    908.93   908.93     0  02:25        1.11        1.15       0.388
  YS02001890           JUNCTION      0.00   909.14     0  02:25           0         1.1       0.469
  YS02001895           JUNCTION      0.00   518.37     0  02:28           0       0.988       0.149
  YS02001898           JUNCTION      0.00   518.29     0  02:28           0       0.986       0.032
  YS02001901           JUNCTION      0.00   517.77     0  02:27           0       0.989       0.332
  YS02001904           JUNCTION      0.00   518.75     0  02:28           0       0.992       0.278
  YS02001907           JUNCTION      0.00  2129.69     0  02:25           0        3.43       0.538
  YS02001910           JUNCTION      0.00  1550.79     0  02:25           0        2.44       0.295
  YS02001915           JUNCTION   1045.97  1550.15     0  02:25        1.54        2.47       0.064
  YS02001918           JUNCTION      0.00   515.52     0  02:26           0       0.948       0.011
  YS02001920           JUNCTION      2.87   515.33     0  02:26      0.0827       0.934       0.095
  YS02001923           JUNCTION      0.04   513.66     0  02:26     0.00109       0.837      -0.056
  YS02001926           JUNCTION      0.05   512.73     0  02:26      0.0015        0.82      -0.035
  YS02001929           JUNCTION    506.97   506.97     0  02:26       0.811       0.811      -0.127
  YS02006553           JUNCTION      0.00   806.87     0  02:39           0        2.16       0.551
  YS02006556           JUNCTION      0.00   807.33     0  02:39           0        2.17       0.375
  YS02006558           JUNCTION   1222.59  1222.59     0  02:25        1.63        3.76       0.098
  YS02006561           JUNCTION      0.00  1172.16     0  02:24           0        3.73      -0.000
  YS02163301           JUNCTION      0.00   925.13     0  02:16           0        3.26       0.048
  YS02163601           JUNCTION      0.11  1349.74     0  02:16     0.00317         4.4       0.115
  YS02164001           JUNCTION      0.00  1349.66     0  02:16           0         4.4       0.058
  CC-1                 OUTFALL       0.00   683.00     0  00:00           0        3.18       0.000
  CC-2                 OUTFALL       0.00   683.00     0  00:00           0        2.83       0.000
  JK-1                 OUTFALL       0.00  1000.00     0  00:00           0         1.3       0.000
  JK-2                 OUTFALL       0.00  1000.00     0  00:00           0        1.06       0.000
  WSC                  OUTFALL       0.00   558.94     0  02:38           0        6.18       0.000
  CC-storage           STORAGE       0.00  3309.78     0  02:24           0        12.1      -0.233
  JK-storage           STORAGE       0.00  1292.54     0  02:24           0        3.92      -0.290
  
  
  **********************
  Node Surcharge Summary
  **********************
  
  Surcharging occurs when water rises above the top of the highest conduit.
  ---------------------------------------------------------------------
                                               Max. Height   Min. Depth
                                   Hours       Above Crown    Below Rim
  Node                 Type      Surcharged         Meters       Meters
  ---------------------------------------------------------------------
  WS02004404           JUNCTION        0.08          0.059        2.721
  WS02006109           JUNCTION        1.88          0.299        1.521
  WS02006110           JUNCTION        0.95          0.232        1.618
  WS02006112           JUNCTION        0.95          0.087        1.593
  WS02006228           JUNCTION        1.87          0.311        1.889
  WS02006229           JUNCTION        1.88          0.365        2.085
  WS02006230           JUNCTION        0.95          0.232        1.338
  WS02006231           JUNCTION        1.02          0.344        1.186
  WS02006232           JUNCTION        1.99          0.542        0.938
  WS02006234           JUNCTION        1.17          0.537        0.703
  WS02006235           JUNCTION        1.88          0.635        0.655
  WS02006238           JUNCTION        1.93          0.659        0.771
  WS02006239           JUNCTION        1.87          0.618        0.672
  WS02006240           JUNCTION        1.88          0.605        0.785
  WS02006242           JUNCTION        2.00          0.820        0.000
  WS02006243           JUNCTION        1.89          0.549        0.221
  WS02006245           JUNCTION        1.88          0.501        0.349
  WS02006247           JUNCTION        1.91          0.495        0.265
  WS02006248           JUNCTION        1.87          0.380        0.000
  WS02006249           JUNCTION        1.88          0.390        0.000
  WS02006251           JUNCTION        1.04          0.331        0.849
  WS02006252           JUNCTION        2.34          1.100        0.000
  WS02006256           JUNCTION        6.31          2.050        0.000
  YS02001580           JUNCTION        0.56          0.450        0.000
  YS02001583           JUNCTION        0.57          0.500        0.000
  YS02001586           JUNCTION        0.66          0.510        0.000
  YS02001590           JUNCTION        0.73          0.750        0.000
  YS02001593           JUNCTION        0.74          0.722        0.118
  YS02001596           JUNCTION        0.84          0.961        0.109
  YS02001600           JUNCTION        0.98          1.190        0.000
  YS02001601           JUNCTION        1.29          1.440        0.000
  YS02001602           JUNCTION        1.19          1.270        0.000
  YS02001605           JUNCTION        1.14          1.180        0.000
  YS02001607           JUNCTION        0.70          0.653        0.027
  YS02001610           JUNCTION        0.73          0.680        0.000
  YS02001613           JUNCTION        0.70          0.666        0.034
  YS02001616           JUNCTION        0.66          0.610        0.000
  YS02001619           JUNCTION        0.64          0.610        0.000
  YS02001622           JUNCTION        0.64          0.611        0.009
  YS02001625           JUNCTION        0.81          0.780        0.000
  YS02001629           JUNCTION        0.60          0.470        0.000
  YS02001633           JUNCTION        0.83          1.060        0.000
  YS02001641           JUNCTION        0.75          1.049        0.051
  YS02001644           JUNCTION        0.72          0.920        0.000
  YS02001647           JUNCTION        0.52          0.760        0.140
  YS02001649           JUNCTION        0.62          0.993        0.057
  YS02001652           JUNCTION        0.45          0.830        0.300
  YS02001655           JUNCTION        0.33          0.684        0.516
  YS02001658           JUNCTION        0.21          1.165        0.135
  YS02001661           JUNCTION        0.05          0.196        1.194
  YS02001748           JUNCTION        0.15          0.342        0.848
  YS02001751           JUNCTION        0.25          0.456        0.744
  YS02001754           JUNCTION        0.37          0.652        0.498
  YS02001757           JUNCTION        0.67          1.048        0.162
  YS02001759           JUNCTION        0.58          1.182        0.028
  YS02001762           JUNCTION        0.55          1.150        0.000
  YS02001765           JUNCTION        0.51          1.100        0.000
  YS02001767           JUNCTION        0.48          1.030        0.000
  YS02001770           JUNCTION        0.46          0.920        0.000
  YS02001774           JUNCTION        0.53          1.050        0.000
  YS02001779           JUNCTION        0.37          0.680        0.000
  YS02001783           JUNCTION        0.50          0.494        1.106
  YS02001784           JUNCTION        0.48          0.364        1.126
  YS02001786           JUNCTION        0.38          0.113        1.317
  YS02001882           JUNCTION        0.45          0.808        0.022
  YS02001884           JUNCTION        0.46          0.870        0.000
  YS02001887           JUNCTION        0.49          0.950        0.000
  YS02001890           JUNCTION        0.50          0.760        0.000
  YS02001895           JUNCTION        0.44          0.569        0.181
  YS02001898           JUNCTION        0.43          0.544        0.196
  YS02001901           JUNCTION        0.48          0.702        0.168
  YS02001904           JUNCTION        0.47          0.642        0.208
  YS02001907           JUNCTION        0.72          0.950        0.000
  YS02001910           JUNCTION        0.53          1.016        0.084
  YS02001915           JUNCTION        0.44          1.000        0.000
  YS02001918           JUNCTION        0.36          0.810        0.000
  YS02001920           JUNCTION        0.38          1.084        0.056
  YS02001923           JUNCTION        0.12          0.778        0.042
  YS02001926           JUNCTION        0.14          0.900        0.000
  YS02001929           JUNCTION        0.01          0.780        0.000
  YS02006553           JUNCTION        0.73          1.012        0.178
  YS02006556           JUNCTION        0.62          1.017        0.333
  YS02006558           JUNCTION        0.60          1.094        0.306
  YS02006561           JUNCTION        0.33          0.186        0.964
  YS02163301           JUNCTION        0.81          0.973        0.057
  YS02163601           JUNCTION        0.86          1.080        0.000
  YS02164001           JUNCTION        0.76          1.075        0.025
  
  
  *********************
  Node Flooding Summary
  *********************
  
  Flooding refers to all water that overflows a node, whether it ponds or not.
  --------------------------------------------------------------------------
                                                             Total   Maximum
                                 Maximum   Time of Max       Flood    Ponded
                        Hours       Rate    Occurrence      Volume     Depth
  Node                 Flooded       LPS   days hr:min    10^6 ltr    Meters
  --------------------------------------------------------------------------
  WS02006242              0.01     39.96      0  02:12       0.000     0.000
  WS02006248              0.01      6.47      0  02:46       0.000     0.000
  WS02006249              1.03     99.21      0  02:13       0.258     0.000
  WS02006252              0.01    245.63      0  00:00       0.000     0.000
  WS02006256              1.37    293.19      0  00:00       0.466     0.000
  YS02001580              0.01     17.56      0  02:13       0.000     0.000
  YS02001583              0.01     63.94      0  02:13       0.000     0.000
  YS02001586              0.44    486.77      0  02:26       0.351     0.000
  YS02001590              0.01      6.47      0  02:13       0.000     0.000
  YS02001600              0.01      3.23      0  02:13       0.000     0.000
  YS02001601              0.60   1356.35      0  02:25       1.305     0.000
  YS02001602              0.48     62.00      0  02:42       0.098     0.000
  YS02001605              0.01      0.16      0  02:30       0.000     0.000
  YS02001610              0.43    797.23      0  02:26       0.644     0.000
  YS02001616              0.01      1.63      0  02:16       0.000     0.000
  YS02001619              0.01      4.37      0  02:24       0.000     0.000
  YS02001625              0.40   1393.52      0  02:26       1.070     0.000
  YS02001629              0.14    112.90      0  02:25       0.036     0.000
  YS02001633              0.01      9.68      0  02:19       0.000     0.000
  YS02001644              0.19   1232.81      0  02:25       0.431     0.000
  YS02001762              0.01      8.21      0  02:19       0.000     0.000
  YS02001765              0.01      9.44      0  02:19       0.000     0.000
  YS02001767              0.01      6.65      0  02:19       0.000     0.000
  YS02001770              0.01     18.19      0  02:19       0.000     0.000
  YS02001774              0.01     13.85      0  02:19       0.000     0.000
  YS02001779              0.17    673.82      0  02:25       0.205     0.000
  YS02001887              0.01      0.42      0  02:24       0.000     0.000
  YS02001890              0.19    392.68      0  02:25       0.112     0.000
  YS02001907              0.32   2128.90      0  02:25       1.260     0.000
  YS02001915              0.01      0.57      0  02:24       0.000     0.000
  YS02001918              0.01     97.83      0  02:18       0.001     0.000
  YS02001926              0.01    196.78      0  02:18       0.001     0.000
  YS02001929              0.01    231.23      0  02:18       0.001     0.000
  YS02163601              0.01     28.01      0  02:19       0.000     0.000
  
  
  **********************
  Storage Volume Summary
  **********************
  
  ------------------------------------------------------------------------------------------------
                         Average    Avg   Evap  Exfil     Maximum    Max    Time of Max    Maximum
                          Volume   Pcnt   Pcnt   Pcnt      Volume   Pcnt     Occurrence    Outflow
  Storage Unit           1000 m³   Full   Loss   Loss     1000 m³   Full    days hr:min        LPS
  ------------------------------------------------------------------------------------------------
  CC-storage               2.260   35.3    0.0    0.0       4.401   68.7       0  02:46    1783.53
  JK-storage               0.147   50.4    0.0    0.0       0.212   72.7       0  02:39    2300.00
  
  
  ***********************
  Outfall Loading Summary
  ***********************
  
  -----------------------------------------------------------
                         Flow       Avg       Max       Total
                         Freq      Flow      Flow      Volume
  Outfall Node           Pcnt       LPS       LPS    10^6 ltr
  -----------------------------------------------------------
  CC-1                  15.22    683.00    683.00       3.179
  CC-2                  13.76    683.00    683.00       2.829
  JK-1                   5.58   1000.00   1000.00       1.299
  JK-2                   3.52   1000.00   1000.00       1.064
  WSC                   99.97    280.65    558.94       6.185
  -----------------------------------------------------------
  System                27.61   3646.65   3923.92      14.555
  
  
  ********************
  Link Flow Summary
  ********************
  
  -----------------------------------------------------------------------------
                                 Maximum  Time of Max   Maximum    Max/    Max/
                                  |Flow|   Occurrence   |Veloc|    Full    Full
  Link                 Type          LPS  days hr:min     m/sec    Flow   Depth
  -----------------------------------------------------------------------------
  1                    CONDUIT    558.94     0  02:38      2.83    0.19    0.30
  WS02003060WS02003069 CONDUIT    557.60     0  02:36      1.64    0.22    0.34
  WS02003066WSF200     CONDUIT    541.18     0  02:35      2.86    0.09    0.22
  WS02003067WS02003066 CONDUIT    541.09     0  02:35      1.21    0.17    0.42
  WS02003069WS02003072 CONDUIT    557.45     0  02:37      1.37    0.27    0.39
  WS02003072WS02003073 CONDUIT    557.28     0  02:37      1.44    1.20    0.37
  WS02004401WS02004402 CONDUIT    541.92     0  02:28      0.98    0.65    0.89
  WS02004402WS02004403 CONDUIT    542.67     0  02:34      0.97    0.78    0.91
  WS02004403WS02004404 CONDUIT    562.78     0  02:44      0.92    0.41    0.96
  WS02004404WS02004405 CONDUIT    607.78     0  02:36      1.08    5.95    0.98
  WS02004405WS02004406 CONDUIT    549.87     0  02:33      0.99    1.08    0.97
  WS02004406WS02004407 CONDUIT    543.09     0  02:33      1.05    0.24    0.63
  WS02004407WS02004409 CONDUIT    542.10     0  02:33      1.58    0.19    0.48
  WS02004409WS02004410 CONDUIT    541.87     0  02:34      1.04    0.70    0.68
  WS02004410WS02004411 CONDUIT    541.70     0  02:34      0.99    0.74    0.69
  WS02004411WS02004412 CONDUIT    541.41     0  02:35      0.96    0.77    0.70
  WS02004412WS02004413 CONDUIT    541.50     0  02:35      0.82    0.36    0.78
  WS02004413WS02003067 CONDUIT    541.02     0  02:35      1.11    0.23    0.59
  WS02006109WS02006110 CONDUIT    556.07     0  03:57      1.11    1.07    1.00
  WS02006110WS02006113 CONDUIT    568.52     0  03:57      1.37    0.52    0.78
  WS02006111WS02006112 CONDUIT    543.33     0  02:49      1.81    0.26    0.67
  WS02006112WS02006115 CONDUIT    548.35     0  02:26      0.87    0.32    0.88
  WS02006113WS02006111 CONDUIT    561.94     0  03:59      2.47    0.67    0.46
  WS02006115WS02006116 CONDUIT    541.50     0  02:38      1.11    0.69    0.79
  WS02006116WS02004401 CONDUIT    541.29     0  02:32      0.98    0.75    0.87
  WS02006228WS02006109 CONDUIT    553.59     0  02:47      1.10    2.42    1.00
  WS02006229WS02006228 CONDUIT    553.98     0  02:47      1.14    1.83    1.00
  WS02006230WS02006229 CONDUIT    554.62     0  02:47      1.44   12.34    1.00
  WS02006231WS02006230 CONDUIT    573.30     0  02:46      1.56    8.70    1.00
  WS02006232WS02006231 CONDUIT    580.66     0  02:46      1.51    1.22    1.00
  WS02006234WS02006232 CONDUIT    579.97     0  02:46      1.51    1.17    1.00
  WS02006235WS02006234 CONDUIT    575.62     0  02:46      1.50    6.07    1.00
  WS02006238WS02006235 CONDUIT    423.70     0  02:45      1.45    0.95    1.00
  WS02006239WS02006238 CONDUIT    423.49     0  02:45      1.10    1.36    1.00
  WS02006240WS02006239 CONDUIT    422.14     0  02:45      1.25    1.33    1.00
  WS02006242WS02006240 CONDUIT    419.81     0  03:08      1.14    1.67    1.00
  WS02006243WS02006242 CONDUIT    420.08     0  03:08      1.40    0.90    1.00
  WS02006245WS02006243 CONDUIT    419.47     0  03:08      1.45    1.24    1.00
  WS02006247WS02006245 CONDUIT    419.36     0  02:45      1.43    3.33    1.00
  WS02006248WS02006247 CONDUIT    420.17     0  02:45      1.44    0.91    1.00
  WS02006249WS02006248 CONDUIT    419.82     0  02:45      1.38    2.30    1.00
  WS02006251WS02006249 CONDUIT    459.02     0  00:00      1.99    1.32    1.00
  WS02006252WS02006251 CONDUIT    446.53     0  01:30     27.74    1.64    1.00
  WS02006256WS02006235 CONDUIT    288.91     0  00:00      4.23    3.06    1.00
  WSF200WS02003060     CONDUIT    541.52     0  02:36      2.07    0.12    0.28
  YS02001580YS02001583 CONDUIT     78.12     0  02:13      0.58    0.30    1.00
  YS02001583YS02001586 CONDUIT    136.99     0  02:13      0.56    0.21    1.00
  YS02001586YS02001590 CONDUIT    318.50     0  02:26      1.25    0.56    1.00
  YS02001590YS02001593 CONDUIT    318.95     0  02:41      1.13    2.00    1.00
  YS02001593YS02001596 CONDUIT    318.57     0  02:41      1.76    0.50    1.00
  YS02001596YS02001600 CONDUIT    318.21     0  02:26      1.27    0.62    1.00
  YS02001600YS02001601 CONDUIT    318.19     0  02:26      1.13    0.55    1.00
  YS02001601YS02001602 CONDUIT    502.53     0  02:12      1.78    1.82    1.00
  YS02001602YS02001605 CONDUIT    502.39     0  02:12      1.78   10.63    1.00
  YS02001605YS02001607 CONDUIT    501.96     0  02:12      1.78    2.75    1.00
  YS02001607YS02001610 CONDUIT    500.13     0  02:12      0.64    0.48    1.00
  YS02001610YS02001613 CONDUIT    500.31     0  02:12      0.64    0.58    1.00
  YS02001613YS02001616 CONDUIT    499.93     0  02:12      0.64    0.43    1.00
  YS02001616YS02001619 CONDUIT    491.26     0  02:13      0.66    0.85    1.00
  YS02001619YS02001622 CONDUIT    988.30     0  02:25      1.26    1.46    1.00
  YS02001622YS02001625 CONDUIT    989.03     0  02:25      1.26    0.53    1.00
  YS02001625YS02001629 CONDUIT    925.38     0  02:16      1.18    0.44    1.00
  YS02001629YS02163301 CONDUIT    925.13     0  02:16      1.18    1.14    1.00
  YS02001633YS02163601 CONDUIT   1349.63     0  02:16      1.72    1.42    1.00
  YS02001641YS02001644 CONDUIT   1347.74     0  02:16      1.72    4.36    1.00
  YS02001644YS02001647 CONDUIT   1730.84     0  02:17      2.22    1.02    1.00
  YS02001647YS02001649 CONDUIT   1746.90     0  02:17      2.31    0.92    1.00
  YS02001649YS02001757 CONDUIT   1938.64     0  02:17      2.47    1.18    1.00
  YS02001652YS02001649 CONDUIT    982.40     0  02:25      1.25    0.49    1.00
  YS02001655YS02001652 CONDUIT    982.61     0  02:25      1.27    0.48    1.00
  YS02001658YS02001655 CONDUIT    982.32     0  02:25      1.85    0.42    1.00
  YS02001661YS02001658 CONDUIT    982.47     0  02:25      2.25    0.39    1.00
  YS02001664YS02001661 CONDUIT    980.48     0  02:25      2.23    0.31    0.82
  YS02001745YS02001748 CONDUIT    616.76     0  02:25      2.12    0.24    0.92
  YS02001748YS02001751 CONDUIT    617.94     0  02:25      1.66    0.31    1.00
  YS02001751YS02001754 CONDUIT    617.53     0  02:25      1.39    0.30    1.00
  YS02001754YS02001757 CONDUIT    618.32     0  02:25      0.79    0.25    1.00
  YS02001757CaochengTiaoxuchi CONDUIT   3309.78     0  02:24      4.21    1.43    1.00
  YS02001759YS02001757 CONDUIT   1391.21     0  02:24      1.77    0.99    1.00
  YS02001762YS02001759 CONDUIT    743.34     0  02:21      0.95    0.86    1.00
  YS02001765YS02001762 CONDUIT    743.13     0  02:21      0.95    0.70    1.00
  YS02001767YS02001765 CONDUIT    742.90     0  02:21      0.95    0.93    1.00
  YS02001770YS02001767 CONDUIT    743.59     0  02:21      0.95    2.95    1.00
  YS02001774YS02001770 CONDUIT    673.73     0  02:25      0.86    0.43    1.00
  YS02001779YS02001774 CONDUIT    674.24     0  02:25      0.86    0.34    1.00
  YS02001783YS02001784 CONDUIT   1168.66     0  02:24      2.32    1.61    1.00
  YS02001784YS02001785 CONDUIT   1170.72     0  02:24      2.33    2.72    1.00
  YS02001786YS02001788 CONDUIT   1170.83     0  02:24      2.49    2.26    0.89
  YS02001788YS02001790 CONDUIT   1177.09     0  02:24      2.72    0.87    0.84
  YS02001790YS02001791 CONDUIT   1296.60     0  02:22      3.44    1.41    0.71
  YS02001791YS02001793 CONDUIT   1268.04     0  02:24      6.76    0.54    0.43
  YS02001793JiankangQianchi CONDUIT   1292.54     0  02:24      2.57    0.10    0.63
  YS02001882YS02001884 CONDUIT     28.38     0  02:15      0.10    0.03    1.00
  YS02001884YS02001887 CONDUIT     62.21     0  02:14      0.08    0.08    1.00
  YS02001887YS02001890 CONDUIT    909.14     0  02:25      1.16    1.56    1.00
  YS02001890YS02001895 CONDUIT    518.37     0  02:28      0.66    0.24    1.00
  YS02001895YS02001898 CONDUIT    518.29     0  02:28      0.66    0.90    1.00
  YS02001898YS02001901 CONDUIT    517.77     0  02:27      0.66    0.33    1.00
  YS02001901YS02001904 CONDUIT    518.75     0  02:28      0.66    0.80    1.00
  YS02001904YS02001907 CONDUIT    519.61     0  02:28      0.66    0.18    1.00
  YS02001907YS02006553 CONDUIT    806.87     0  02:39      0.90    0.95    1.00
  YS02001910YS02001907 CONDUIT   1551.41     0  02:25      1.98    0.87    1.00
  YS02001915YS02001910 CONDUIT   1550.79     0  02:25      1.97    0.77    1.00
  YS02001918YS02001915 CONDUIT    515.43     0  02:26      0.66    0.28    1.00
  YS02001920YS02001918 CONDUIT    515.52     0  02:26      0.67    0.50    1.00
  YS02001923YS02001920 CONDUIT    512.46     0  02:26      0.69    0.23    1.00
  YS02001926YS02001923 CONDUIT    513.63     0  02:26      0.95    0.73    1.00
  YS02001929YS02001926 CONDUIT    512.68     0  02:26      1.10    0.24    1.00
  YS02006553YS02006556 CONDUIT    807.33     0  02:39      1.03    0.69    1.00
  YS02006556YS02006558 CONDUIT    809.83     0  02:39      1.03    0.64    1.00
  YS02006558YS02006561 CONDUIT   1172.16     0  02:24      4.15    2.59    1.00
  YS02006561YS02001783 CONDUIT   1169.80     0  02:24      2.33    0.61    1.00
  YS02163301YS02001633 CONDUIT    925.09     0  02:16      1.18    0.87    1.00
  YS02163601YS02164001 CONDUIT   1349.66     0  02:16      1.72    1.20    1.00
  YS02164001YS02001641 CONDUIT   1347.64     0  02:16      1.72    1.84    1.00
  CC-R1                PUMP       683.00     0  00:00              1.00
  CC-R2                PUMP       683.00     0  00:00              1.00
  CC-S1                PUMP       200.00     0  00:00              1.00
  CC-S2                PUMP       200.00     0  00:00              1.00
  JK-R1                PUMP      1000.00     0  00:00              1.00
  JK-R2                PUMP      1000.00     0  00:00              1.00
  JK-S                 PUMP       300.00     0  00:00              1.00
  
  
  ***************************
  Flow Classification Summary
  ***************************
  
  -------------------------------------------------------------------------------------
                      Adjusted    ---------- Fraction of Time in Flow Class ---------- 
                       /Actual         Up    Down  Sub   Sup   Up    Down  Norm  Inlet 
  Conduit               Length    Dry  Dry   Dry   Crit  Crit  Crit  Crit  Ltd   Ctrl  
  -------------------------------------------------------------------------------------
  1                       1.00   0.00  0.00  0.00  0.00  1.00  0.00  0.00  0.42  0.00
  WS02003060WS02003069    1.00   0.00  0.00  0.00  0.98  0.02  0.00  0.00  0.68  0.00
  WS02003066WSF200        1.00   0.13  0.00  0.00  0.00  0.87  0.00  0.00  0.74  0.00
  WS02003067WS02003066    1.00   0.10  0.02  0.00  0.88  0.00  0.00  0.00  0.00  0.00
  WS02003069WS02003072    1.00   0.00  0.00  0.00  0.99  0.01  0.00  0.00  0.73  0.00
  WS02003072WS02003073    1.00   0.00  0.00  0.00  0.00  0.00  0.00  1.00  0.00  0.00
  WS02004401WS02004402    1.00   0.02  0.00  0.00  0.98  0.00  0.00  0.00  0.00  0.00
  WS02004402WS02004403    1.00   0.02  0.00  0.00  0.97  0.00  0.00  0.00  0.00  0.00
  WS02004403WS02004404    1.00   0.00  0.03  0.00  0.97  0.00  0.00  0.00  0.00  0.00
  WS02004404WS02004405    1.00   0.00  0.00  0.00  1.00  0.00  0.00  0.00  0.01  0.00
  WS02004405WS02004406    1.00   0.00  0.00  0.00  1.00  0.00  0.00  0.00  0.00  0.00
  WS02004406WS02004407    1.00   0.00  0.05  0.00  0.95  0.00  0.00  0.00  0.00  0.00
  WS02004407WS02004409    1.00   0.05  0.00  0.00  0.94  0.01  0.00  0.00  0.94  0.00
  WS02004409WS02004410    1.00   0.05  0.00  0.00  0.95  0.00  0.00  0.00  0.03  0.00
  WS02004410WS02004411    1.00   0.05  0.00  0.00  0.95  0.00  0.00  0.00  0.01  0.00
  WS02004411WS02004412    1.00   0.05  0.00  0.00  0.95  0.00  0.00  0.00  0.00  0.00
  WS02004412WS02004413    1.00   0.05  0.00  0.00  0.94  0.00  0.00  0.00  0.01  0.00
  WS02004413WS02003067    1.00   0.06  0.04  0.00  0.00  0.00  0.90  0.00  0.00  0.00
  WS02006109WS02006110    1.00   0.00  0.01  0.00  0.98  0.00  0.01  0.00  0.00  0.00
  WS02006110WS02006113    1.00   0.01  0.01  0.00  0.98  0.00  0.00  0.00  0.00  0.00
  WS02006111WS02006112    1.00   0.02  0.00  0.00  0.98  0.00  0.00  0.00  0.98  0.00
  WS02006112WS02006115    1.00   0.02  0.00  0.00  0.97  0.00  0.00  0.00  0.00  0.00
  WS02006113WS02006111    1.00   0.02  0.00  0.00  0.00  0.98  0.00  0.00  0.16  0.00
  WS02006115WS02006116    1.00   0.02  0.00  0.00  0.97  0.00  0.00  0.01  0.00  0.00
  WS02006116WS02004401    1.00   0.02  0.00  0.00  0.98  0.00  0.00  0.00  0.00  0.00
  WS02006228WS02006109    1.00   0.00  0.00  0.00  1.00  0.00  0.00  0.00  0.00  0.00
  WS02006229WS02006228    1.00   0.00  0.00  0.00  0.99  0.00  0.00  0.01  0.00  0.00
  WS02006230WS02006229    1.00   0.00  0.00  0.00  0.99  0.00  0.00  0.01  0.02  0.00
  WS02006231WS02006230    1.00   0.00  0.00  0.00  0.27  0.00  0.73  0.00  0.00  0.00
  WS02006232WS02006231    1.00   0.00  0.00  0.00  0.99  0.00  0.01  0.00  0.00  0.00
  WS02006234WS02006232    1.00   0.00  0.00  0.00  1.00  0.00  0.00  0.00  0.11  0.00
  WS02006235WS02006234    1.00   0.00  0.00  0.00  0.84  0.00  0.16  0.00  0.00  0.00
  WS02006238WS02006235    1.00   0.00  0.00  0.00  1.00  0.00  0.00  0.00  0.00  0.00
  WS02006239WS02006238    1.00   0.00  0.00  0.00  1.00  0.00  0.00  0.00  0.22  0.00
  WS02006240WS02006239    1.00   0.00  0.00  0.00  0.67  0.00  0.00  0.33  0.01  0.00
  WS02006242WS02006240    1.00   0.00  0.00  0.00  0.99  0.00  0.01  0.00  0.00  0.00
  WS02006243WS02006242    1.00   0.00  0.00  0.00  0.99  0.00  0.00  0.01  0.41  0.00
  WS02006245WS02006243    1.00   0.00  0.00  0.00  0.77  0.00  0.00  0.23  0.00  0.00
  WS02006247WS02006245    1.00   0.00  0.00  0.00  0.98  0.00  0.00  0.02  0.00  0.00
  WS02006248WS02006247    1.00   0.00  0.00  0.00  0.99  0.00  0.00  0.01  0.23  0.00
  WS02006249WS02006248    1.00   0.00  0.00  0.00  0.60  0.00  0.40  0.00  0.00  0.00
  WS02006251WS02006249    1.00   0.00  0.00  0.00  0.99  0.01  0.00  0.00  0.42  0.00
  WS02006252WS02006251    1.00   0.00  0.22  0.00  0.13  0.00  0.65  0.00  0.00  0.00
  WS02006256WS02006235    1.00   0.00  0.00  0.00  1.00  0.00  0.00  0.00  0.00  0.00
  WSF200WS02003060        1.00   0.00  0.13  0.00  0.26  0.61  0.00  0.00  0.40  0.00
  YS02001580YS02001583    1.00   0.27  0.54  0.00  0.18  0.00  0.00  0.00  0.64  0.00
  YS02001583YS02001586    1.00   0.41  0.35  0.00  0.24  0.00  0.00  0.00  0.64  0.00
  YS02001586YS02001590    1.00   0.13  0.00  0.00  0.44  0.04  0.00  0.39  0.39  0.00
  YS02001590YS02001593    1.00   0.13  0.01  0.00  0.11  0.00  0.76  0.00  0.00  0.00
  YS02001593YS02001596    1.00   0.14  0.00  0.00  0.12  0.01  0.00  0.73  0.02  0.00
  YS02001596YS02001600    1.00   0.14  0.00  0.00  0.18  0.02  0.00  0.66  0.05  0.00
  YS02001600YS02001601    1.00   0.13  0.01  0.00  0.86  0.00  0.00  0.00  0.61  0.00
  YS02001601YS02001602    1.00   0.13  0.01  0.00  0.86  0.00  0.00  0.00  0.00  0.00
  YS02001602YS02001605    1.00   0.14  0.00  0.00  0.86  0.00  0.00  0.00  0.00  0.00
  YS02001605YS02001607    1.00   0.14  0.00  0.00  0.86  0.00  0.00  0.00  0.00  0.00
  YS02001607YS02001610    1.00   0.13  0.01  0.00  0.86  0.00  0.00  0.00  0.02  0.00
  YS02001610YS02001613    1.00   0.13  0.00  0.00  0.87  0.00  0.00  0.00  0.01  0.00
  YS02001613YS02001616    1.00   0.13  0.00  0.00  0.87  0.00  0.00  0.00  0.01  0.00
  YS02001616YS02001619    1.00   0.13  0.00  0.00  0.87  0.00  0.00  0.00  0.00  0.00
  YS02001619YS02001622    1.00   0.13  0.00  0.00  0.87  0.00  0.00  0.00  0.28  0.00
  YS02001622YS02001625    1.00   0.13  0.00  0.00  0.87  0.00  0.00  0.00  0.05  0.00
  YS02001625YS02001629    1.00   0.13  0.06  0.00  0.14  0.00  0.67  0.00  0.00  0.00
  YS02001629YS02163301    1.00   0.16  0.01  0.00  0.83  0.00  0.00  0.00  0.00  0.00
  YS02001633YS02163601    1.00   0.00  0.01  0.00  0.99  0.00  0.00  0.00  0.15  0.00
  YS02001641YS02001644    1.00   0.00  0.01  0.00  0.99  0.00  0.00  0.00  0.00  0.00
  YS02001644YS02001647    1.00   0.00  0.18  0.00  0.82  0.00  0.00  0.00  0.00  0.00
  YS02001647YS02001649    1.00   0.00  0.18  0.00  0.52  0.30  0.00  0.00  0.55  0.00
  YS02001649YS02001757    1.00   0.00  0.00  0.00  0.84  0.16  0.00  0.00  0.42  0.00
  YS02001652YS02001649    1.00   0.00  0.00  0.00  0.96  0.04  0.00  0.00  0.75  0.00
  YS02001655YS02001652    1.00   0.00  0.00  0.00  0.17  0.01  0.00  0.82  0.06  0.00
  YS02001658YS02001655    1.00   0.00  0.14  0.00  0.64  0.22  0.00  0.00  0.71  0.00
  YS02001661YS02001658    1.00   0.14  0.00  0.00  0.48  0.38  0.00  0.00  0.72  0.00
  YS02001664YS02001661    1.00   0.13  0.00  0.00  0.78  0.10  0.00  0.00  0.85  0.00
  YS02001745YS02001748    1.00   0.00  0.00  0.00  0.08  0.01  0.00  0.92  0.04  0.00
  YS02001748YS02001751    1.00   0.00  0.00  0.00  0.81  0.19  0.00  0.00  0.75  0.00
  YS02001751YS02001754    1.00   0.00  0.00  0.00  0.15  0.01  0.00  0.85  0.04  0.00
  YS02001754YS02001757    1.00   0.00  0.00  0.00  1.00  0.00  0.00  0.00  0.83  0.00
  YS02001757CaochengTiaoxuchi    1.00   0.00  0.00  0.00  0.98  0.02  0.00  0.00  0.64  0.00
  YS02001759YS02001757    1.00   0.00  0.00  0.00  1.00  0.00  0.00  0.00  0.53  0.00
  YS02001762YS02001759    1.00   0.00  0.00  0.00  1.00  0.00  0.00  0.00  0.07  0.00
  YS02001765YS02001762    1.00   0.00  0.00  0.00  1.00  0.00  0.00  0.00  0.68  0.00
  YS02001767YS02001765    1.00   0.00  0.00  0.00  1.00  0.00  0.00  0.00  0.01  0.00
  YS02001770YS02001767    1.00   0.00  0.00  0.00  1.00  0.00  0.00  0.00  0.00  0.00
  YS02001774YS02001770    1.00   0.00  0.13  0.00  0.70  0.00  0.16  0.00  0.04  0.00
  YS02001779YS02001774    1.00   0.00  0.00  0.00  1.00  0.00  0.00  0.00  0.77  0.00
  YS02001783YS02001784    1.00   0.00  0.19  0.00  0.81  0.00  0.00  0.00  0.55  0.00
  YS02001784YS02001785    1.00   0.00  0.00  0.00  1.00  0.00  0.00  0.00  0.18  0.00
  YS02001786YS02001788    1.00   0.00  0.00  0.00  0.80  0.20  0.00  0.00  0.00  0.00
  YS02001788YS02001790    1.00   0.00  0.00  0.00  0.23  0.77  0.00  0.00  0.81  0.00
  YS02001790YS02001791    1.00   0.00  0.00  0.00  0.01  0.99  0.00  0.00  0.15  0.00
  YS02001791YS02001793    1.00   0.00  0.00  0.00  0.00  1.00  0.00  0.00  0.01  0.00
  YS02001793JiankangQianchi    1.00   0.00  0.00  0.00  0.96  0.03  0.00  0.00  0.98  0.00
  YS02001882YS02001884    1.00   0.16  0.01  0.00  0.83  0.00  0.00  0.00  0.00  0.00
  YS02001884YS02001887    1.00   0.06  0.05  0.00  0.89  0.00  0.00  0.00  0.00  0.00
  YS02001887YS02001890    1.00   0.00  0.00  0.00  0.97  0.00  0.03  0.00  0.00  0.00
  YS02001890YS02001895    1.00   0.00  0.17  0.00  0.83  0.00  0.00  0.00  0.00  0.00
  YS02001895YS02001898    1.00   0.17  0.00  0.00  0.81  0.00  0.02  0.00  0.00  0.00
  YS02001898YS02001901    1.00   0.17  0.00  0.00  0.82  0.00  0.00  0.00  0.01  0.00
  YS02001901YS02001904    1.00   0.17  0.00  0.00  0.83  0.00  0.00  0.00  0.00  0.00
  YS02001904YS02001907    1.00   0.00  0.17  0.00  0.83  0.00  0.00  0.00  0.00  0.00
  YS02001907YS02006553    1.00   0.00  0.02  0.00  0.98  0.00  0.00  0.00  0.00  0.00
  YS02001910YS02001907    1.00   0.00  0.00  0.00  0.97  0.00  0.00  0.03  0.12  0.00
  YS02001915YS02001910    1.00   0.00  0.00  0.00  0.96  0.04  0.00  0.00  0.17  0.00
  YS02001918YS02001915    1.00   0.00  0.01  0.00  0.98  0.02  0.00  0.00  0.76  0.00
  YS02001920YS02001918    1.00   0.00  0.01  0.00  0.99  0.00  0.00  0.00  0.00  0.00
  YS02001923YS02001920    1.00   0.00  0.00  0.00  1.00  0.00  0.00  0.00  0.93  0.00
  YS02001926YS02001923    1.00   0.00  0.07  0.00  0.06  0.00  0.87  0.00  0.00  0.00
  YS02001929YS02001926    1.00   0.00  0.13  0.00  0.87  0.00  0.00  0.00  0.82  0.00
  YS02006553YS02006556    1.00   0.01  0.00  0.00  0.99  0.00  0.00  0.00  0.03  0.00
  YS02006556YS02006558    1.00   0.00  0.00  0.00  1.00  0.00  0.00  0.00  0.00  0.00
  YS02006558YS02006561    1.00   0.19  0.00  0.00  0.05  0.76  0.00  0.00  0.19  0.00
  YS02006561YS02001783    1.00   0.19  0.00  0.00  0.08  0.73  0.00  0.00  0.69  0.00
  YS02163301YS02001633    1.00   0.00  0.16  0.00  0.84  0.00  0.00  0.00  0.00  0.00
  YS02163601YS02164001    1.00   0.00  0.08  0.00  0.92  0.00  0.00  0.00  0.00  0.00
  YS02164001YS02001641    1.00   0.01  0.07  0.00  0.92  0.00  0.00  0.00  0.06  0.00
  
  
  *************************
  Conduit Surcharge Summary
  *************************
  
  ----------------------------------------------------------------------------
                                                           Hours        Hours 
                         --------- Hours Full --------   Above Full   Capacity
  Conduit                Both Ends  Upstream  Dnstream   Normal Flow   Limited
  ----------------------------------------------------------------------------
  WS02003072WS02003073        0.01      0.01      0.01      1.07         0.01
  WS02004403WS02004404        0.01      0.01      0.06      0.01         0.01
  WS02004404WS02004405        0.01      0.06      0.01      4.46         0.01
  WS02004405WS02004406        0.01      0.01      0.01      0.83         0.01
  WS02006109WS02006110        0.95      0.95      1.98      1.00         0.01
  WS02006110WS02006113        0.01      0.01      1.93      0.01         0.01
  WS02006111WS02006112        0.01      0.01      2.43      0.01         0.01
  WS02006112WS02006115        0.01      0.01      0.95      0.01         0.01
  WS02006228WS02006109        1.88      1.99      1.88      2.79         1.87
  WS02006229WS02006228        1.87      1.88      1.87      2.30         1.86
  WS02006230WS02006229        2.08      2.22      2.08      4.82         2.08
  WS02006231WS02006230        0.95      0.95      1.04      4.63         0.01
  WS02006232WS02006231        1.02      1.02      1.99      1.07         0.01
  WS02006234WS02006232        1.87      1.87      1.99      1.05         1.05
  WS02006235WS02006234        1.17      1.17      1.88      4.50         0.01
  WS02006238WS02006235        1.89      1.89      2.00      0.01         0.01
  WS02006239WS02006238        1.93      1.98      1.93      2.13         1.76
  WS02006240WS02006239        1.87      1.91      1.87      2.13         1.60
  WS02006242WS02006240        1.88      1.88      2.04      2.36         0.01
  WS02006243WS02006242        1.91      1.91      2.00      0.01         0.02
  WS02006245WS02006243        1.88      1.90      1.89      1.18         1.07
  WS02006247WS02006245        1.88      1.92      1.88      4.15         1.88
  WS02006248WS02006247        1.88      1.88      1.91      0.01         0.02
  WS02006249WS02006248        1.86      1.87      1.88      4.12         0.01
  WS02006251WS02006249        1.88      1.88      1.88      2.26         1.83
  WS02006252WS02006251        2.32      2.32      2.33      2.33         0.01
  WS02006256WS02006235        4.52      4.56      6.28      1.38         0.01
  YS02001580YS02001583        0.56      0.56      0.60      0.01         0.01
  YS02001583YS02001586        0.57      0.57      0.66      0.01         0.01
  YS02001586YS02001590        0.67      0.67      0.73      0.01         0.01
  YS02001590YS02001593        0.74      0.74      0.75      0.76         0.01
  YS02001593YS02001596        0.74      0.74      0.84      0.01         0.01
  YS02001596YS02001600        0.89      0.89      0.98      0.01         0.01
  YS02001600YS02001601        1.03      1.03      1.29      0.01         0.01
  YS02001601YS02001602        1.19      1.19      1.33      0.99         0.01
  YS02001602YS02001605        1.14      1.14      1.19      2.24         0.01
  YS02001605YS02001607        1.09      1.14      1.09      1.25         1.09
  YS02001607YS02001610        0.70      0.70      0.73      0.01         0.01
  YS02001610YS02001613        0.70      0.70      0.73      0.01         0.01
  YS02001613YS02001616        0.66      0.66      0.70      0.01         0.01
  YS02001616YS02001619        0.64      0.64      0.66      0.01         0.02
  YS02001619YS02001622        0.64      0.64      0.64      0.76         0.62
  YS02001622YS02001625        0.64      0.64      0.81      0.01         0.01
  YS02001625YS02001629        0.60      0.60      0.81      0.01         0.01
  YS02001629YS02163301        0.80      0.80      0.81      0.22         0.21
  YS02001633YS02163601        0.83      0.83      0.86      0.35         0.33
  YS02001641YS02001644        0.72      0.75      0.72      1.38         0.71
  YS02001644YS02001647        0.52      0.52      0.72      0.03         0.01
  YS02001647YS02001649        0.52      0.52      0.62      0.01         0.01
  YS02001649YS02001757        0.62      0.62      0.67      0.12         0.08
  YS02001652YS02001649        0.47      0.47      0.62      0.01         0.01
  YS02001655YS02001652        0.33      0.33      0.45      0.01         0.01
  YS02001658YS02001655        0.21      0.21      0.33      0.01         0.01
  YS02001661YS02001658        0.05      0.05      0.21      0.01         0.01
  YS02001664YS02001661        0.01      0.01      0.09      0.01         0.01
  YS02001745YS02001748        0.01      0.01      0.15      0.01         0.01
  YS02001748YS02001751        0.19      0.19      0.25      0.01         0.01
  YS02001751YS02001754        0.25      0.25      0.37      0.01         0.01
  YS02001754YS02001757        0.40      0.40      0.67      0.01         0.01
  YS02001757CaochengTiaoxuchi        0.63      0.67      1.63      0.37         0.30
  YS02001759YS02001757        0.58      0.58      0.67      0.01         0.01
  YS02001762YS02001759        0.55      0.55      0.58      0.01         0.01
  YS02001765YS02001762        0.51      0.51      0.55      0.01         0.01
  YS02001767YS02001765        0.48      0.48      0.51      0.01         0.02
  YS02001770YS02001767        0.48      0.48      0.48      0.50         0.37
  YS02001774YS02001770        0.46      0.46      0.53      0.01         0.01
  YS02001779YS02001774        0.37      0.37      0.53      0.01         0.01
  YS02001783YS02001784        0.48      0.50      0.48      0.65         0.48
  YS02001784YS02001785        0.38      0.48      0.38      0.85         0.38
  YS02001786YS02001788        0.01      0.38      0.01      0.76         0.01
  YS02001790YS02001791        0.01      0.01      0.01      0.46         0.01
  YS02001793JiankangQianchi        0.01      0.01      7.30      0.01         0.01
  YS02001882YS02001884        0.45      0.45      0.46      0.01         0.01
  YS02001884YS02001887        0.48      0.48      0.49      0.01         0.01
  YS02001887YS02001890        0.50      0.50      0.51      0.12         0.01
  YS02001890YS02001895        0.44      0.44      0.53      0.01         0.01
  YS02001895YS02001898        0.43      0.43      0.44      0.01         0.01
  YS02001898YS02001901        0.44      0.44      0.48      0.01         0.01
  YS02001901YS02001904        0.47      0.47      0.48      0.01         0.01
  YS02001904YS02001907        0.47      0.47      0.73      0.01         0.01
  YS02001907YS02006553        0.86      0.86      0.93      0.01         0.01
  YS02001910YS02001907        0.53      0.53      0.72      0.01         0.01
  YS02001915YS02001910        0.44      0.44      0.53      0.01         0.01
  YS02001918YS02001915        0.36      0.36      0.44      0.01         0.01
  YS02001920YS02001918        0.36      0.36      0.38      0.01         0.01
  YS02001923YS02001920        0.32      0.32      0.38      0.01         0.01
  YS02001926YS02001923        0.12      0.12      0.14      0.01         0.01
  YS02001929YS02001926        0.01      0.01      0.14      0.01         0.01
  YS02006553YS02006556        0.62      0.62      0.73      0.01         0.01
  YS02006556YS02006558        0.67      0.67      0.75      0.01         0.01
  YS02006558YS02006561        0.39      0.60      0.39      0.82         0.39
  YS02006561YS02001783        0.33      0.33      0.50      0.01         0.01
  YS02163301YS02001633        0.81      0.81      0.84      0.01         0.01
  YS02163601YS02164001        0.76      0.76      0.86      0.10         0.01
  YS02164001YS02001641        0.75      0.76      0.75      0.65         0.54
  
  
  ***************
  Pumping Summary
  ***************
  
  ---------------------------------------------------------------------------------------------------------
                                                  Min       Avg       Max     Total     Power    % Time Off
                        Percent   Number of      Flow      Flow      Flow    Volume     Usage    Pump Curve
  Pump                 Utilized   Start-Ups       LPS       LPS       LPS  10^6 ltr     Kw-hr    Low   High
  ---------------------------------------------------------------------------------------------------------
  CC-R1                   16.17           4      0.00    683.00    683.00     3.180     58.67    0.0   19.3
  CC-R2                   14.37           2      0.00    683.00    683.00     2.828     52.12    0.0   25.7
  CC-S1                   48.74          17      0.00    200.00    200.00     2.808     17.34    0.0    0.0
  CC-S2                   33.24           9      0.00    200.00    200.00     1.915     11.80    0.0    0.0
  JK-R1                    4.51          10      0.00   1000.00   1000.00     1.299     11.70    0.0    0.0
  JK-R2                    3.69          10      0.00   1000.00   1000.00     1.062     10.28    0.0    0.0
  JK-S                    17.17          12      0.00    300.00    300.00     1.484     24.60    0.0    0.0
  

  Analysis begun on:  Wed Jan 15 10:22:40 2025
  Analysis ended on:  Wed Jan 15 10:22:42 2025
  Total elapsed time: 00:00:02