
  EPA STORM WATER MANAGEMENT MODEL - VERSION 5.2 (Build 5.2.4)
  PYSWMM TOOLKIT API - VERSION v1.0 (2023-11-27)
  ------------------------------------------------------------

  WARNING 04: minimum elevation drop used for Conduit WS02004404WS02004405
  WARNING 03: negative offset ignored for Link YS02001904YS02001907
  
  ****************
  Analysis Options
  ****************
  Flow Units ............... LPS
  Process Models:
    Rainfall/Runoff ........ YES
    RDII ................... NO
    Snowmelt ............... NO
    Groundwater ............ NO
    Flow Routing ........... YES
    Ponding Allowed ........ NO
    Water Quality .......... NO
  Infiltration Method ...... HORTON
  Flow Routing Method ...... DYNWAVE
  Surcharge Method ......... EXTRAN
  Starting Date ............ 08/28/2015 08:00:00
  Ending Date .............. 08/28/2015 16:00:00
  Antecedent Dry Days ...... 8.0
  Report Time Step ......... 00:01:00
  Wet Time Step ............ 00:01:00
  Dry Time Step ............ 00:01:00
  Routing Time Step ........ 30.00 sec
  Variable Time Step ....... YES
  Maximum Trials ........... 8
  Number of Threads ........ 4
  Head Tolerance ........... 0.001500 m
  
  
  **************************        Volume         Depth
  Runoff Quantity Continuity     hectare-m            mm
  **************************     ---------       -------
  Total Precipitation ......         3.308        99.722
  Evaporation Loss .........         0.000         0.000
  Infiltration Loss ........         0.107         3.222
  Surface Runoff ...........         3.168        95.522
  Final Storage ............         0.033         0.998
  Continuity Error (%) .....        -0.020
  
  
  **************************        Volume        Volume
  Flow Routing Continuity        hectare-m      10^6 ltr
  **************************     ---------     ---------
  Dry Weather Inflow .......         0.025         0.251
  Wet Weather Inflow .......         3.168        31.683
  Groundwater Inflow .......         0.000         0.000
  RDII Inflow ..............         0.000         0.000
  External Inflow ..........         0.083         0.834
  External Outflow .........         1.962        19.619
  Flooding Loss ............         1.378        13.776
  Evaporation Loss .........         0.000         0.000
  Exfiltration Loss ........         0.000         0.000
  Initial Stored Volume ....         0.243         2.431
  Final Stored Volume ......         0.187         1.867
  Continuity Error (%) .....        -0.181
  
  
  *************************
  Highest Continuity Errors
  *************************
  Node YS02001884 (4.76%)
  Node YS02001583 (-2.63%)
  
  
  ***************************
  Time-Step Critical Elements
  ***************************
  Link WS02006252WS02006251 (49.74%)
  Link WS02006238WS02006235 (13.13%)
  Link WS02004404WS02004405 (12.58%)
  Link YS02001791YS02001793 (7.71%)
  Link WS02006235WS02006234 (5.34%)
  
  
  ********************************
  Highest Flow Instability Indexes
  ********************************
  Link WS02006113WS02006111 (54)
  Link WS02006111WS02006112 (25)
  Link WS02004404WS02004405 (21)
  Link WS02006238WS02006235 (20)
  Link WS02004403WS02004404 (19)
  
  
  *********************************
  Most Frequent Nonconverging Nodes
  *********************************
  Node CC-1 (11.22%)
  Node CC-2 (11.22%)
  Node JK-1 (11.22%)
  Node JK-2 (11.22%)
  Node WSC (11.22%)
  
  
  *************************
  Routing Time Step Summary
  *************************
  Minimum Time Step           :     0.01 sec
  Average Time Step           :     1.73 sec
  Maximum Time Step           :     6.49 sec
  % of Time in Steady State   :     0.00
  Average Iterations per Step :     3.11
  % of Steps Not Converging   :    11.22
  Time Step Frequencies       :
     30.000 - 13.228 sec      :     0.00 %
     13.228 -  5.833 sec      :     7.12 %
      5.833 -  2.572 sec      :    13.49 %
      2.572 -  1.134 sec      :    23.10 %
      1.134 -  0.500 sec      :    56.28 %
  
  
  ***************************
  Subcatchment Runoff Summary
  ***************************
  
  ------------------------------------------------------------------------------------------------------------------------------
                            Total      Total      Total      Total     Imperv       Perv      Total       Total     Peak  Runoff
                           Precip      Runon       Evap      Infil     Runoff     Runoff     Runoff      Runoff   Runoff   Coeff
  Subcatchment                 mm         mm         mm         mm         mm         mm         mm    10^6 ltr      LPS
  ------------------------------------------------------------------------------------------------------------------------------
  sub60                     99.72       0.00       0.00       1.90      86.56      10.07      96.63        1.27   840.75   0.969
  sub61                     99.72       0.00       0.00       2.76      81.65      14.19      95.84        1.76  1170.65   0.961
  sub62                     99.72       0.00       0.00       1.26      90.46       6.71      97.18        2.66  1670.89   0.974
  sub63                     99.72       0.00       0.00       5.14      69.84      23.78      93.62        2.13  1363.16   0.939
  sub64                     99.72       0.00       0.00       2.59      83.56      12.37      95.93        2.30  1393.10   0.962
  sub65                     99.72       0.00       0.00       2.24      85.51      10.72      96.23        2.65  1563.79   0.965
  sub66                     99.72       0.00       0.00       6.44      69.73      22.48      92.20        4.30  2197.80   0.925
  sub67                     99.72       0.00       0.00       1.21      90.51       6.77      97.28        1.81  1235.63   0.976
  sub68                     99.72       0.00       0.00       2.29      84.58      11.67      96.25        2.65  1707.81   0.965
  sub69                     99.72       0.00       0.00       2.09      84.65      12.87      97.52        3.61  2080.14   0.978
  sub70                     99.72       0.00       0.00       7.07      65.65      26.84      92.49        2.67  1245.89   0.927
  sub71                     99.72       0.00       0.00       1.30      90.42       6.68      97.10        2.54  1502.27   0.974
  sub72                     99.72       0.00       0.00       1.16      91.34       5.82      97.16        1.34   739.63   0.974
  
  
  ******************
  Node Depth Summary
  ******************
  
  ---------------------------------------------------------------------------------
                                 Average  Maximum  Maximum  Time of Max    Reported
                                   Depth    Depth      HGL   Occurrence   Max Depth
  Node                 Type       Meters   Meters   Meters  days hr:min      Meters
  ---------------------------------------------------------------------------------
  WS02003060           JUNCTION     0.26     0.39     5.32     0  02:36        0.39
  WS02003066           JUNCTION     0.21     0.30     5.85     0  02:36        0.30
  WS02003067           JUNCTION     0.54     0.70     6.02     0  02:35        0.70
  WS02003069           JUNCTION     0.29     0.43     5.02     0  02:37        0.43
  WS02003072           JUNCTION     0.36     0.50     4.87     0  02:38        0.50
  WS02003073           JUNCTION     0.21     0.30     4.36     0  02:39        0.30
  WS02004401           JUNCTION     0.65     0.88     6.88     0  02:38        0.88
  WS02004402           JUNCTION     0.68     0.91     6.87     0  02:38        0.91
  WS02004403           JUNCTION     0.70     0.93     6.86     0  02:38        0.92
  WS02004404           JUNCTION     0.78     1.05     6.90     0  02:38        1.02
  WS02004405           JUNCTION     0.76     0.97     6.82     0  02:18        0.97
  WS02004406           JUNCTION     0.77     0.96     6.79     0  02:34        0.96
  WS02004407           JUNCTION     0.20     0.30     6.61     0  02:34        0.30
  WS02004409           JUNCTION     0.44     0.67     6.44     0  02:34        0.67
  WS02004410           JUNCTION     0.47     0.68     6.40     0  02:35        0.68
  WS02004411           JUNCTION     0.48     0.69     6.37     0  02:35        0.69
  WS02004412           JUNCTION     0.50     0.70     6.34     0  02:35        0.70
  WS02004413           JUNCTION     0.66     0.86     6.33     0  02:35        0.86
  WS02006109           JUNCTION     0.70     1.20     7.82     0  03:21        1.20
  WS02006110           JUNCTION     0.70     1.19     7.78     0  02:46        1.11
  WS02006111           JUNCTION     0.20     0.29     6.99     0  03:12        0.29
  WS02006112           JUNCTION     0.81     1.08     6.97     0  02:39        1.08
  WS02006113           JUNCTION     0.30     0.46     7.35     0  03:12        0.46
  WS02006115           JUNCTION     0.53     0.78     6.92     0  02:39        0.78
  WS02006116           JUNCTION     0.62     0.86     6.90     0  02:22        0.86
  WS02006228           JUNCTION     0.70     1.18     7.83     0  03:21        1.18
  WS02006229           JUNCTION     0.67     1.40     8.09     0  02:07        1.40
  WS02006230           JUNCTION     0.68     1.35     8.09     0  02:46        1.15
  WS02006231           JUNCTION     0.47     1.24     8.37     0  03:10        0.91
  WS02006232           JUNCTION     0.61     1.26     8.30     0  01:54        1.13
  WS02006234           JUNCTION     0.54     1.25     8.40     0  02:51        1.17
  WS02006235           JUNCTION     0.58     1.44     8.60     0  03:10        1.30
  WS02006238           JUNCTION     0.61     1.48     8.63     0  03:10        1.34
  WS02006239           JUNCTION     0.58     1.44     8.65     0  03:10        1.35
  WS02006240           JUNCTION     0.55     1.46     8.75     0  02:07        1.46
  WS02006242           JUNCTION     0.62     1.55     8.82     0  02:07        1.55
  WS02006243           JUNCTION     0.52     1.32     8.74     0  02:45        1.25
  WS02006245           JUNCTION     0.52     1.26     8.74     0  02:45        1.23
  WS02006247           JUNCTION     0.54     1.47     8.97     0  01:53        1.40
  WS02006248           JUNCTION     0.50     1.10     8.69     0  01:54        1.10
  WS02006249           JUNCTION     0.53     1.09     8.69     0  01:53        1.09
  WS02006251           JUNCTION     0.52     1.45     9.12     0  02:01        1.23
  WS02006252           JUNCTION     0.38     1.50     9.74     0  00:00        0.79
  WS02006256           JUNCTION     1.07     2.35     9.28     0  00:00        2.35
  WSF200               JUNCTION     0.19     0.29     5.53     0  02:36        0.29
  YS02001580           JUNCTION     0.10     1.05     9.59     0  01:59        1.05
  YS02001583           JUNCTION     0.13     1.14     9.64     0  01:59        0.84
  YS02001586           JUNCTION     0.21     1.13     9.30     0  01:59        1.13
  YS02001590           JUNCTION     0.31     1.40     9.26     0  02:07        1.40
  YS02001593           JUNCTION     0.24     1.46     9.32     0  02:07        1.46
  YS02001596           JUNCTION     0.33     1.69     9.10     0  02:07        1.69
  YS02001600           JUNCTION     0.40     1.87     9.00     0  01:59        1.87
  YS02001601           JUNCTION     0.59     2.06     8.90     0  01:50        2.06
  YS02001602           JUNCTION     0.50     1.87     8.77     0  01:50        1.87
  YS02001605           JUNCTION     0.46     1.78     8.68     0  02:07        1.78
  YS02001607           JUNCTION     0.45     1.68     8.53     0  02:07        1.68
  YS02001610           JUNCTION     0.50     1.68     8.48     0  02:07        1.68
  YS02001613           JUNCTION     0.46     1.68     8.52     0  02:17        1.68
  YS02001616           JUNCTION     0.39     1.61     8.52     0  02:07        1.61
  YS02001619           JUNCTION     0.36     1.61     8.54     0  02:07        1.61
  YS02001622           JUNCTION     0.35     1.62     8.52     0  02:07        1.62
  YS02001625           JUNCTION     0.62     1.78     8.38     0  02:07        1.78
  YS02001629           JUNCTION     0.47     1.85     8.40     0  02:10        1.85
  YS02001633           JUNCTION     0.56     2.08     8.53     0  02:07        2.08
  YS02001641           JUNCTION     0.54     2.02     8.46     0  02:14        2.02
  YS02001644           JUNCTION     0.53     1.92     8.35     0  02:13        1.92
  YS02001647           JUNCTION     0.32     1.78     8.39     0  02:24        1.78
  YS02001649           JUNCTION     0.36     2.03     8.42     0  02:23        2.03
  YS02001652           JUNCTION     0.26     1.92     8.51     0  02:24        1.91
  YS02001655           JUNCTION     0.20     1.75     8.60     0  02:24        1.75
  YS02001658           JUNCTION     0.15     1.56     8.71     0  02:24        1.56
  YS02001661           JUNCTION     0.17     1.40     8.81     0  02:24        1.38
  YS02001664           JUNCTION     0.06     0.95     8.88     0  02:24        0.93
  YS02001745           JUNCTION     0.08     1.03     8.55     0  02:23        1.02
  YS02001748           JUNCTION     0.14     1.43     8.50     0  02:23        1.42
  YS02001751           JUNCTION     0.17     1.59     8.47     0  02:23        1.57
  YS02001754           JUNCTION     0.23     1.82     8.43     0  02:24        1.82
  YS02001757           JUNCTION     0.39     2.12     8.39     0  02:24        2.12
  YS02001759           JUNCTION     0.33     2.12     8.48     0  02:24        2.12
  YS02001762           JUNCTION     0.32     2.09     8.49     0  02:24        2.09
  YS02001765           JUNCTION     0.30     2.03     8.48     0  02:24        2.03
  YS02001767           JUNCTION     0.29     1.98     8.47     0  02:24        1.98
  YS02001770           JUNCTION     0.30     1.95     8.44     0  02:17        1.95
  YS02001774           JUNCTION     0.37     2.02     8.44     0  02:27        2.02
  YS02001779           JUNCTION     0.21     1.68     8.37     0  02:15        1.68
  YS02001783           JUNCTION     0.25     1.25     7.39     0  02:24        1.25
  YS02001784           JUNCTION     0.26     1.13     7.20     0  02:24        1.13
  YS02001786           JUNCTION     0.22     0.88     6.91     0  02:23        0.88
  YS02001788           JUNCTION     0.16     0.63     6.60     0  02:25        0.63
  YS02001790           JUNCTION     0.19     0.73     6.38     0  02:25        0.72
  YS02001791           JUNCTION     0.12     0.45     5.92     0  02:26        0.43
  YS02001793           JUNCTION     0.06     0.30     5.14     0  02:37        0.27
  YS02001882           JUNCTION     0.32     1.71     8.43     0  02:37        1.71
  YS02001884           JUNCTION     0.41     1.93     8.55     0  02:07        1.93
  YS02001887           JUNCTION     0.49     2.00     8.54     0  02:07        2.00
  YS02001890           JUNCTION     0.52     1.81     8.32     0  02:07        1.81
  YS02001895           JUNCTION     0.29     1.58     8.33     0  02:27        1.58
  YS02001898           JUNCTION     0.30     1.59     8.32     0  02:37        1.59
  YS02001901           JUNCTION     0.41     1.72     8.33     0  02:37        1.72
  YS02001904           JUNCTION     0.39     1.81     8.44     0  02:07        1.81
  YS02001907           JUNCTION     0.72     1.96     8.25     0  02:07        1.96
  YS02001910           JUNCTION     0.52     2.03     8.54     0  02:27        2.03
  YS02001915           JUNCTION     0.33     2.00     8.72     0  02:23        2.00
  YS02001918           JUNCTION     0.18     1.73     8.80     0  02:23        1.73
  YS02001920           JUNCTION     0.26     1.84     8.84     0  02:27        1.84
  YS02001923           JUNCTION     0.14     1.60     8.86     0  02:23        1.60
  YS02001926           JUNCTION     0.17     1.45     8.89     0  02:23        1.43
  YS02001929           JUNCTION     0.10     1.23     8.93     0  02:23        1.21
  YS02006553           JUNCTION     0.72     2.16     8.44     0  02:07        2.16
  YS02006556           JUNCTION     0.69     2.18     8.49     0  02:07        2.18
  YS02006558           JUNCTION     0.74     2.32     8.59     0  02:07        2.32
  YS02006561           JUNCTION     0.16     0.93     7.59     0  02:24        0.93
  YS02163301           JUNCTION     0.50     2.03     8.55     0  02:07        2.03
  YS02163601           JUNCTION     0.59     2.08     8.48     0  02:07        2.08
  YS02164001           JUNCTION     0.53     2.04     8.50     0  02:14        2.04
  CC-1                 OUTFALL      0.00     0.00     0.00     0  00:00        0.00
  CC-2                 OUTFALL      0.00     0.00     0.00     0  00:00        0.00
  JK-1                 OUTFALL      0.00     0.00     0.00     0  00:00        0.00
  JK-2                 OUTFALL      0.00     0.00     0.00     0  00:00        0.00
  WSC                  OUTFALL      0.20     0.30     0.97     0  02:39        0.30
  CC-storage           STORAGE      0.85     1.86     7.36     0  02:51        1.86
  JK-storage           STORAGE      2.73     4.23     5.03     0  02:37        4.23
  
  
  *******************
  Node Inflow Summary
  *******************
  
  -------------------------------------------------------------------------------------------------
                                  Maximum  Maximum                  Lateral       Total        Flow
                                  Lateral    Total  Time of Max      Inflow      Inflow     Balance
                                   Inflow   Inflow   Occurrence      Volume      Volume       Error
  Node                 Type           LPS      LPS  days hr:min    10^6 ltr    10^6 ltr     Percent
  -------------------------------------------------------------------------------------------------
  WS02003060           JUNCTION     16.53   559.08     0  02:36       0.476        6.81       0.029
  WS02003066           JUNCTION      0.00   541.93     0  02:36           0        6.34       0.019
  WS02003067           JUNCTION      0.00   541.72     0  02:35           0        6.34       0.064
  WS02003069           JUNCTION      0.32   559.15     0  02:36     0.00922        6.82       0.051
  WS02003072           JUNCTION      0.00   558.58     0  02:37           0        6.81       0.093
  WS02003073           JUNCTION      1.82   560.11     0  02:38      0.0524        6.86       0.073
  WS02004401           JUNCTION      0.00   541.77     0  02:22           0        6.43       0.154
  WS02004402           JUNCTION      0.00   543.64     0  02:40           0        6.42       0.157
  WS02004403           JUNCTION      0.00   546.39     0  02:40           0        6.41       0.152
  WS02004404           JUNCTION      0.16   564.06     0  02:39     0.00467         6.4       0.066
  WS02004405           JUNCTION      0.04   611.91     0  02:38      0.0011         6.4       0.106
  WS02004406           JUNCTION      0.00   549.94     0  02:33           0        6.39       0.316
  WS02004407           JUNCTION      0.00   544.40     0  02:34           0        6.37       0.015
  WS02004409           JUNCTION      0.00   543.70     0  02:34           0        6.37       0.036
  WS02004410           JUNCTION      0.00   542.89     0  02:34           0        6.37       0.062
  WS02004411           JUNCTION      0.00   542.31     0  02:35           0        6.37       0.081
  WS02004412           JUNCTION      0.00   542.28     0  02:35           0        6.36       0.111
  WS02004413           JUNCTION      0.00   542.13     0  02:35           0        6.35       0.198
  WS02006109           JUNCTION      1.23   556.22     0  02:46      0.0354        6.47       0.138
  WS02006110           JUNCTION      0.00   557.56     0  02:46           0        6.46       0.098
  WS02006111           JUNCTION      0.00   562.61     0  03:12           0        6.46       0.012
  WS02006112           JUNCTION      0.00   543.38     0  03:12           0        6.46       0.265
  WS02006113           JUNCTION      0.00   566.34     0  02:42           0        6.46       0.024
  WS02006115           JUNCTION      0.00   547.61     0  03:12           0        6.44       0.096
  WS02006116           JUNCTION      0.00   542.57     0  02:39           0        6.43       0.083
  WS02006228           JUNCTION      0.00   554.71     0  02:46           0        6.44       0.055
  WS02006229           JUNCTION      0.00   554.63     0  02:46           0        6.45       0.069
  WS02006230           JUNCTION     10.28   591.54     0  02:45       0.296        6.45       0.061
  WS02006231           JUNCTION      0.00   581.48     0  02:51           0        6.15       0.011
  WS02006232           JUNCTION      0.00   580.60     0  02:51           0        6.16       0.105
  WS02006234           JUNCTION      0.00   575.56     0  02:51           0        6.16      -0.096
  WS02006235           JUNCTION      0.00   573.14     0  01:40           0        6.19       0.082
  WS02006238           JUNCTION      0.00   427.55     0  03:31           0        4.98      -0.197
  WS02006239           JUNCTION      0.00   426.78     0  03:31           0        4.96      -0.148
  WS02006240           JUNCTION      0.00   425.55     0  03:31           0        4.95      -0.069
  WS02006242           JUNCTION      0.00   425.44     0  03:31           0        4.93      -0.022
  WS02006243           JUNCTION      0.00   426.89     0  03:31           0        4.92      -0.077
  WS02006245           JUNCTION      0.00   426.64     0  03:31           0        4.93       0.221
  WS02006247           JUNCTION      0.00   425.38     0  03:31           0        4.93      -0.001
  WS02006248           JUNCTION      0.00   424.77     0  03:31           0        4.93       0.019
  WS02006249           JUNCTION      0.00   473.45     0  01:35           0        5.24       0.202
  WS02006251           JUNCTION      0.08   408.90     0  02:01     0.00222        5.24       0.010
  WS02006252           JUNCTION      0.00   400.00     0  00:00           0        5.23      -0.070
  WS02006256           JUNCTION      0.00   300.00     0  00:00           0        1.78      -0.479
  WSF200               JUNCTION      0.00   542.04     0  02:36           0        6.34       0.006
  YS02001580           JUNCTION      0.00    53.84     0  01:59           0     0.00427       0.589
  YS02001583           JUNCTION      0.00    86.97     0  01:59           0      0.0161      -2.567
  YS02001586           JUNCTION   1245.89  1245.89     0  02:26        2.67        2.68       0.031
  YS02001590           JUNCTION      0.00   319.18     0  02:10           0        1.72      -0.027
  YS02001593           JUNCTION      0.00   319.22     0  02:10           0        1.72       0.004
  YS02001596           JUNCTION      0.00   318.08     0  02:43           0        1.72      -0.009
  YS02001600           JUNCTION      0.00   318.10     0  02:17           0        1.72       0.024
  YS02001601           JUNCTION   2080.14  2397.58     0  02:25        3.61        5.33       0.017
  YS02001602           JUNCTION      0.00   498.52     0  01:59           0        2.79       0.018
  YS02001605           JUNCTION      0.00   498.45     0  01:59           0        2.61       0.025
  YS02001607           JUNCTION      0.00   498.25     0  01:59           0        2.61       0.078
  YS02001610           JUNCTION      0.00   954.65     0  02:28           0        3.25       0.078
  YS02001613           JUNCTION      0.00   617.93     0  02:28           0        2.51       0.075
  YS02001616           JUNCTION      0.00   618.36     0  02:28           0        2.51       0.016
  YS02001619           JUNCTION   2197.80  2197.80     0  02:26         4.3        6.17       0.001
  YS02001622           JUNCTION      0.00  1053.92     0  02:25           0        5.35      -0.000
  YS02001625           JUNCTION      0.00  1505.36     0  02:30           0        5.84       0.175
  YS02001629           JUNCTION      0.00   945.22     0  02:07           0        4.22       0.007
  YS02001633           JUNCTION   1563.99  1563.99     0  02:25        2.65        6.25       0.057
  YS02001641           JUNCTION      0.00  1346.53     0  02:07           0        5.63       0.054
  YS02001644           JUNCTION   1393.14  2603.64     0  02:25        2.31        8.03       0.042
  YS02001647           JUNCTION      0.00  1707.19     0  02:07           0        6.63       0.007
  YS02001649           JUNCTION      0.00  1914.44     0  02:08           0        8.66       0.004
  YS02001652           JUNCTION      0.00  1361.02     0  02:25           0        2.13      -0.049
  YS02001655           JUNCTION      0.15  1361.10     0  02:25     0.00443        2.13       0.008
  YS02001658           JUNCTION      0.00  1359.96     0  02:25           0        2.13      -0.015
  YS02001661           JUNCTION      0.00  1359.88     0  02:25           0        2.13       0.009
  YS02001664           JUNCTION   1363.16  1363.16     0  02:25        2.13        2.13      -0.010
  YS02001745           JUNCTION    840.75   840.75     0  02:25        1.27        1.27       0.101
  YS02001748           JUNCTION      0.04   844.42     0  02:25      0.0013        1.27      -0.157
  YS02001751           JUNCTION      0.01   845.94     0  02:25    0.000317        1.27       0.051
  YS02001754           JUNCTION      0.26   846.24     0  02:25     0.00749        1.28      -0.107
  YS02001757           JUNCTION      0.00  3134.59     0  02:16           0        13.5       0.032
  YS02001759           JUNCTION   1170.69  1373.40     0  02:23        1.76        3.71      -0.001
  YS02001762           JUNCTION      0.00   725.10     0  02:16           0        1.95       0.012
  YS02001765           JUNCTION      0.00   725.10     0  02:16           0        1.95       0.013
  YS02001767           JUNCTION      0.54   725.24     0  02:16      0.0154        1.95       0.012
  YS02001770           JUNCTION   1671.05  1671.05     0  02:25        2.67        2.71      -0.004
  YS02001774           JUNCTION      0.00   852.05     0  02:28           0       0.662       0.206
  YS02001779           JUNCTION      0.01   851.63     0  02:27    0.000144       0.616       0.011
  YS02001783           JUNCTION      0.00  1175.07     0  02:24           0        5.29       0.004
  YS02001784           JUNCTION      1.06  1176.38     0  02:24      0.0305        5.32       0.011
  YS02001786           JUNCTION      0.06  1176.37     0  02:24     0.00162        5.32       0.014
  YS02001788           JUNCTION      0.07  1178.53     0  02:24     0.00204        5.32       0.005
  YS02001790           JUNCTION      0.15  1185.45     0  02:23     0.00446        5.32       0.027
  YS02001791           JUNCTION      0.00  1308.65     0  02:25           0        5.32      -0.036
  YS02001793           JUNCTION      0.00  1264.39     0  02:23           0        5.32       0.003
  YS02001882           JUNCTION      0.00    27.53     0  02:04           0      0.0135       5.054
  YS02001884           JUNCTION      0.00    33.38     0  02:04           0      0.0504       4.995
  YS02001887           JUNCTION   1236.08  1236.11     0  02:25        1.82        1.86       0.239
  YS02001890           JUNCTION      0.00  1236.29     0  02:25           0        1.81       0.282
  YS02001895           JUNCTION      0.00   518.33     0  02:21           0        1.49       0.116
  YS02001898           JUNCTION      0.00   518.36     0  02:28           0        1.49      -0.002
  YS02001901           JUNCTION      0.00   518.65     0  02:31           0         1.5       0.223
  YS02001904           JUNCTION      0.00   517.99     0  02:28           0         1.5       0.185
  YS02001907           JUNCTION      0.00  3048.04     0  02:25           0        5.56       0.325
  YS02001910           JUNCTION      0.00  1993.17     0  02:26           0        3.92       0.185
  YS02001915           JUNCTION   1502.29  2246.39     0  02:25        2.54        3.97       0.037
  YS02001918           JUNCTION      0.00   745.51     0  02:25           0        1.44       0.007
  YS02001920           JUNCTION      2.87   744.68     0  02:25      0.0827        1.43       0.065
  YS02001923           JUNCTION      0.04   740.65     0  02:25     0.00109        1.35       0.001
  YS02001926           JUNCTION      0.05   740.99     0  02:25      0.0015        1.34       0.003
  YS02001929           JUNCTION    739.63   739.63     0  02:25        1.34        1.34      -0.009
  YS02006553           JUNCTION      0.00   804.75     0  02:43           0        2.95       0.410
  YS02006556           JUNCTION      0.00   804.12     0  02:43           0        2.96       0.275
  YS02006558           JUNCTION   1708.69  1708.69     0  02:25        2.67        5.46       0.067
  YS02006561           JUNCTION      0.00  1175.27     0  02:24           0        5.29      -0.000
  YS02163301           JUNCTION      0.00   948.25     0  02:07           0        4.22       0.039
  YS02163601           JUNCTION      0.11  1343.31     0  02:07     0.00317        5.63       0.091
  YS02164001           JUNCTION      0.00  1340.46     0  02:07           0        5.63       0.044
  CC-1                 OUTFALL       0.00   683.00     0  00:00           0         4.5       0.000
  CC-2                 OUTFALL       0.00   683.00     0  00:00           0        4.64       0.000
  JK-1                 OUTFALL       0.00  1000.00     0  00:00           0        2.05       0.000
  JK-2                 OUTFALL       0.00  1000.00     0  00:00           0        1.57       0.000
  WSC                  OUTFALL       0.00   559.84     0  02:39           0        6.86       0.000
  CC-storage           STORAGE       0.00  3134.08     0  02:16           0        15.8      -0.192
  JK-storage           STORAGE       0.00  1289.72     0  02:25           0        5.47      -0.189
  
  
  **********************
  Node Surcharge Summary
  **********************
  
  Surcharging occurs when water rises above the top of the highest conduit.
  ---------------------------------------------------------------------
                                               Max. Height   Min. Depth
                                   Hours       Above Crown    Below Rim
  Node                 Type      Surcharged         Meters       Meters
  ---------------------------------------------------------------------
  WS02004404           JUNCTION        0.09          0.051        2.729
  WS02006109           JUNCTION        2.37          0.378        1.442
  WS02006110           JUNCTION        1.04          0.283        1.567
  WS02006112           JUNCTION        1.27          0.084        1.596
  WS02006228           JUNCTION        2.36          0.351        1.849
  WS02006229           JUNCTION        2.39          0.597        1.853
  WS02006230           JUNCTION        1.04          0.270        1.300
  WS02006231           JUNCTION        1.18          0.535        0.995
  WS02006232           JUNCTION        2.55          0.563        0.917
  WS02006234           JUNCTION        1.56          0.528        0.712
  WS02006235           JUNCTION        2.37          0.726        0.564
  WS02006238           JUNCTION        2.46          0.761        0.669
  WS02006239           JUNCTION        2.32          0.701        0.589
  WS02006240           JUNCTION        2.31          0.747        0.643
  WS02006242           JUNCTION        2.48          0.820        0.000
  WS02006243           JUNCTION        2.27          0.612        0.158
  WS02006245           JUNCTION        2.26          0.549        0.301
  WS02006247           JUNCTION        2.29          0.760        0.000
  WS02006248           JUNCTION        2.23          0.380        0.000
  WS02006249           JUNCTION        2.26          0.390        0.000
  WS02006251           JUNCTION        1.23          0.415        0.765
  WS02006252           JUNCTION        2.84          1.100        0.000
  WS02006256           JUNCTION        6.07          2.050        0.000
  YS02001580           JUNCTION        0.95          0.450        0.000
  YS02001583           JUNCTION        0.96          0.500        0.000
  YS02001586           JUNCTION        1.08          0.510        0.000
  YS02001590           JUNCTION        1.16          0.750        0.000
  YS02001593           JUNCTION        1.16          0.840        0.000
  YS02001596           JUNCTION        1.29          0.955        0.115
  YS02001600           JUNCTION        1.47          1.190        0.000
  YS02001601           JUNCTION        1.82          1.440        0.000
  YS02001602           JUNCTION        1.71          1.270        0.000
  YS02001605           JUNCTION        1.66          1.180        0.000
  YS02001607           JUNCTION        1.15          0.680        0.000
  YS02001610           JUNCTION        1.17          0.680        0.000
  YS02001613           JUNCTION        1.14          0.679        0.021
  YS02001616           JUNCTION        1.10          0.610        0.000
  YS02001619           JUNCTION        1.08          0.610        0.000
  YS02001622           JUNCTION        1.08          0.620        0.000
  YS02001625           JUNCTION        1.28          0.780        0.000
  YS02001629           JUNCTION        1.01          0.470        0.000
  YS02001633           JUNCTION        1.31          1.060        0.000
  YS02001641           JUNCTION        1.24          1.022        0.078
  YS02001644           JUNCTION        1.20          0.920        0.000
  YS02001647           JUNCTION        0.94          0.782        0.118
  YS02001649           JUNCTION        1.05          1.028        0.022
  YS02001652           JUNCTION        0.89          0.887        0.243
  YS02001655           JUNCTION        0.72          0.754        0.446
  YS02001658           JUNCTION        0.42          0.563        0.737
  YS02001661           JUNCTION        0.16          0.331        1.059
  YS02001745           JUNCTION        0.01          0.032        1.318
  YS02001748           JUNCTION        0.34          0.347        0.843
  YS02001751           JUNCTION        0.56          0.589        0.611
  YS02001754           JUNCTION        0.81          0.768        0.382
  YS02001757           JUNCTION        1.11          1.125        0.085
  YS02001759           JUNCTION        1.02          1.120        0.090
  YS02001762           JUNCTION        0.99          1.086        0.064
  YS02001765           JUNCTION        0.95          1.027        0.073
  YS02001767           JUNCTION        0.93          0.978        0.052
  YS02001770           JUNCTION        0.92          0.920        0.000
  YS02001774           JUNCTION        0.98          1.018        0.032
  YS02001779           JUNCTION        0.80          0.680        0.000
  YS02001783           JUNCTION        0.80          0.453        1.147
  YS02001784           JUNCTION        0.77          0.334        1.156
  YS02001786           JUNCTION        0.63          0.083        1.347
  YS02001882           JUNCTION        0.73          0.712        0.118
  YS02001884           JUNCTION        0.74          0.870        0.000
  YS02001887           JUNCTION        0.78          0.950        0.000
  YS02001890           JUNCTION        0.80          0.760        0.000
  YS02001895           JUNCTION        0.71          0.585        0.165
  YS02001898           JUNCTION        0.71          0.557        0.183
  YS02001901           JUNCTION        0.77          0.720        0.150
  YS02001904           JUNCTION        0.76          0.810        0.040
  YS02001907           JUNCTION        1.15          0.950        0.000
  YS02001910           JUNCTION        0.84          1.030        0.070
  YS02001915           JUNCTION        0.72          1.000        0.000
  YS02001918           JUNCTION        0.62          0.729        0.081
  YS02001920           JUNCTION        0.63          0.837        0.303
  YS02001923           JUNCTION        0.24          0.394        0.426
  YS02001926           JUNCTION        0.28          0.450        0.450
  YS02001929           JUNCTION        0.13          0.233        0.547
  YS02006553           JUNCTION        1.17          1.156        0.034
  YS02006556           JUNCTION        0.97          1.136        0.214
  YS02006558           JUNCTION        0.95          1.221        0.179
  YS02006561           JUNCTION        0.57          0.128        1.022
  YS02163301           JUNCTION        1.28          1.030        0.000
  YS02163601           JUNCTION        1.35          1.080        0.000
  YS02164001           JUNCTION        1.24          1.038        0.062
  
  
  *********************
  Node Flooding Summary
  *********************
  
  Flooding refers to all water that overflows a node, whether it ponds or not.
  --------------------------------------------------------------------------
                                                             Total   Maximum
                                 Maximum   Time of Max       Flood    Ponded
                        Hours       Rate    Occurrence      Volume     Depth
  Node                 Flooded       LPS   days hr:min    10^6 ltr    Meters
  --------------------------------------------------------------------------
  WS02006242              0.01      0.14      0  02:07       0.000     0.000
  WS02006247              0.01     62.06      0  01:53       0.000     0.000
  WS02006248              0.01     19.10      0  02:45       0.000     0.000
  WS02006249              1.20    111.08      0  02:01       0.294     0.000
  WS02006252              0.01    245.63      0  00:00       0.000     0.000
  WS02006256              1.64    293.19      0  00:00       0.568     0.000
  YS02001580              0.01     28.11      0  01:59       0.000     0.000
  YS02001583              0.01     40.59      0  01:59       0.000     0.000
  YS02001586              0.76    928.21      0  02:26       0.952     0.000
  YS02001590              0.01      0.25      0  02:37       0.000     0.000
  YS02001593              0.01      0.18      0  02:07       0.000     0.000
  YS02001600              0.01      0.52      0  01:59       0.000     0.000
  YS02001601              1.02   1999.58      0  02:25       2.540     0.000
  YS02001602              0.85     62.09      0  02:37       0.176     0.000
  YS02001605              0.01      1.32      0  02:07       0.000     0.000
  YS02001607              0.01      0.70      0  02:10       0.000     0.000
  YS02001610              0.76    954.12      0  02:29       1.384     0.000
  YS02001616              0.05      9.10      0  02:35       0.000     0.000
  YS02001619              0.17    527.55      0  02:26       0.169     0.000
  YS02001622              0.01      0.78      0  02:10       0.000     0.000
  YS02001625              0.72   1505.18      0  02:30       2.231     0.000
  YS02001629              0.24    384.31      0  02:25       0.136     0.000
  YS02001633              0.01      0.52      0  02:07       0.000     0.000
  YS02001644              0.38   2602.85      0  02:25       1.493     0.000
  YS02001770              0.12    637.11      0  02:25       0.135     0.000
  YS02001779              0.33    851.39      0  02:27       0.596     0.000
  YS02001884              0.01      0.57      0  02:07       0.000     0.000
  YS02001887              0.01      0.35      0  02:07       0.000     0.000
  YS02001890              0.30    719.20      0  02:25       0.315     0.000
  YS02001907              0.55   3047.48      0  02:25       2.744     0.000
  YS02001915              0.08    253.98      0  02:25       0.040     0.000
  YS02163301              0.01      0.54      0  02:07       0.000     0.000
  YS02163601              0.01      1.39      0  02:14       0.000     0.000
  
  
  **********************
  Storage Volume Summary
  **********************
  
  ------------------------------------------------------------------------------------------------
                         Average    Avg   Evap  Exfil     Maximum    Max    Time of Max    Maximum
                          Volume   Pcnt   Pcnt   Pcnt      Volume   Pcnt     Occurrence    Outflow
  Storage Unit           1000 m³   Full   Loss   Loss     1000 m³   Full    days hr:min        LPS
  ------------------------------------------------------------------------------------------------
  CC-storage               2.374   37.0    0.0    0.0       5.191   81.0       0  02:51    1783.53
  JK-storage               0.137   47.1    0.0    0.0       0.212   72.9       0  02:37    2300.00
  
  
  ***********************
  Outfall Loading Summary
  ***********************
  
  -----------------------------------------------------------
                         Flow       Avg       Max       Total
                         Freq      Flow      Flow      Volume
  Outfall Node           Pcnt       LPS       LPS    10^6 ltr
  -----------------------------------------------------------
  CC-1                  20.97    683.00    683.00       4.503
  CC-2                  24.19    683.00    683.00       4.643
  JK-1                   8.79   1000.00   1000.00       2.048
  JK-2                   5.40   1000.00   1000.00       1.570
  WSC                   99.96    299.10    559.84       6.856
  -----------------------------------------------------------
  System                31.86   3665.10   3924.92      19.619
  
  
  ********************
  Link Flow Summary
  ********************
  
  -----------------------------------------------------------------------------
                                 Maximum  Time of Max   Maximum    Max/    Max/
                                  |Flow|   Occurrence   |Veloc|    Full    Full
  Link                 Type          LPS  days hr:min     m/sec    Flow   Depth
  -----------------------------------------------------------------------------
  1                    CONDUIT    559.84     0  02:39      2.83    0.19    0.30
  WS02003060WS02003069 CONDUIT    558.83     0  02:36      1.65    0.22    0.34
  WS02003066WSF200     CONDUIT    542.04     0  02:36      2.86    0.09    0.22
  WS02003067WS02003066 CONDUIT    541.93     0  02:36      1.21    0.17    0.42
  WS02003069WS02003072 CONDUIT    558.58     0  02:37      1.37    0.27    0.39
  WS02003072WS02003073 CONDUIT    558.29     0  02:38      1.44    1.21    0.38
  WS02004401WS02004402 CONDUIT    543.64     0  02:40      0.98    0.65    0.89
  WS02004402WS02004403 CONDUIT    546.39     0  02:40      0.97    0.78    0.92
  WS02004403WS02004404 CONDUIT    563.89     0  02:39      0.92    0.41    0.96
  WS02004404WS02004405 CONDUIT    611.87     0  02:38      1.08    5.99    0.98
  WS02004405WS02004406 CONDUIT    549.94     0  02:33      0.99    1.08    0.97
  WS02004406WS02004407 CONDUIT    544.40     0  02:34      1.05    0.24    0.63
  WS02004407WS02004409 CONDUIT    543.70     0  02:34      1.47    0.19    0.48
  WS02004409WS02004410 CONDUIT    542.89     0  02:34      0.96    0.70    0.68
  WS02004410WS02004411 CONDUIT    542.31     0  02:35      0.94    0.74    0.69
  WS02004411WS02004412 CONDUIT    542.28     0  02:35      0.93    0.77    0.70
  WS02004412WS02004413 CONDUIT    542.13     0  02:35      0.83    0.36    0.78
  WS02004413WS02003067 CONDUIT    541.72     0  02:35      1.12    0.23    0.59
  WS02006109WS02006110 CONDUIT    557.56     0  02:46      1.11    1.07    1.00
  WS02006110WS02006113 CONDUIT    566.34     0  02:42      1.37    0.52    0.79
  WS02006111WS02006112 CONDUIT    543.38     0  03:12      1.81    0.26    0.67
  WS02006112WS02006115 CONDUIT    547.61     0  03:12      0.77    0.32    0.88
  WS02006113WS02006111 CONDUIT    562.61     0  03:12      2.47    0.67    0.46
  WS02006115WS02006116 CONDUIT    542.57     0  02:39      0.98    0.70    0.79
  WS02006116WS02004401 CONDUIT    541.77     0  02:22      0.98    0.75    0.87
  WS02006228WS02006109 CONDUIT    554.99     0  02:46      1.10    2.42    1.00
  WS02006229WS02006228 CONDUIT    554.71     0  02:46      1.14    1.84    1.00
  WS02006230WS02006229 CONDUIT    554.63     0  02:46      1.44   12.34    1.00
  WS02006231WS02006230 CONDUIT    581.26     0  02:45      1.59    8.82    1.00
  WS02006232WS02006231 CONDUIT    581.48     0  02:51      1.52    1.22    1.00
  WS02006234WS02006232 CONDUIT    580.60     0  02:51      1.51    1.17    1.00
  WS02006235WS02006234 CONDUIT    575.56     0  02:51      1.50    6.07    1.00
  WS02006238WS02006235 CONDUIT    425.90     0  03:31      1.45    0.95    1.00
  WS02006239WS02006238 CONDUIT    427.55     0  03:31      1.11    1.37    1.00
  WS02006240WS02006239 CONDUIT    426.78     0  03:31      1.24    1.34    1.00
  WS02006242WS02006240 CONDUIT    425.55     0  03:31      1.13    1.69    1.00
  WS02006243WS02006242 CONDUIT    425.44     0  03:31      1.40    0.91    1.00
  WS02006245WS02006243 CONDUIT    426.89     0  03:31      1.45    1.26    1.00
  WS02006247WS02006245 CONDUIT    426.64     0  03:31      1.43    3.38    1.00
  WS02006248WS02006247 CONDUIT    425.38     0  03:31      1.44    0.93    1.00
  WS02006249WS02006248 CONDUIT    424.77     0  03:31      1.39    2.33    1.00
  WS02006251WS02006249 CONDUIT    473.45     0  01:35      1.99    1.37    1.00
  WS02006252WS02006251 CONDUIT    408.83     0  02:01     24.61    1.50    1.00
  WS02006256WS02006235 CONDUIT    288.91     0  00:00      4.23    3.06    1.00
  WSF200WS02003060     CONDUIT    542.56     0  02:36      2.07    0.12    0.28
  YS02001580YS02001583 CONDUIT     53.84     0  01:59      0.44    0.21    1.00
  YS02001583YS02001586 CONDUIT     86.97     0  01:59      0.37    0.13    1.00
  YS02001586YS02001590 CONDUIT    319.18     0  02:10      1.23    0.56    1.00
  YS02001590YS02001593 CONDUIT    319.22     0  02:10      1.13    2.00    1.00
  YS02001593YS02001596 CONDUIT    318.08     0  02:43      1.76    0.50    1.00
  YS02001596YS02001600 CONDUIT    318.10     0  02:17      1.30    0.62    1.00
  YS02001600YS02001601 CONDUIT    318.39     0  02:34      1.13    0.55    1.00
  YS02001601YS02001602 CONDUIT    498.52     0  01:59      1.76    1.80    1.00
  YS02001602YS02001605 CONDUIT    498.45     0  01:59      1.76   10.55    1.00
  YS02001605YS02001607 CONDUIT    498.25     0  01:59      1.76    2.73    1.00
  YS02001607YS02001610 CONDUIT    496.77     0  01:59      0.63    0.47    1.00
  YS02001610YS02001613 CONDUIT    618.21     0  02:28      0.79    0.71    1.00
  YS02001613YS02001616 CONDUIT    617.93     0  02:28      0.79    0.53    1.00
  YS02001616YS02001619 CONDUIT    618.36     0  02:28      0.79    1.07    1.00
  YS02001619YS02001622 CONDUIT   1053.92     0  02:25      1.34    1.55    1.00
  YS02001622YS02001625 CONDUIT   1053.67     0  02:28      1.34    0.56    1.00
  YS02001625YS02001629 CONDUIT    945.22     0  02:07      1.20    0.45    1.00
  YS02001629YS02163301 CONDUIT    948.25     0  02:07      1.21    1.17    1.00
  YS02001633YS02163601 CONDUIT   1343.20     0  02:07      1.71    1.41    1.00
  YS02001641YS02001644 CONDUIT   1353.82     0  02:07      1.72    4.38    1.00
  YS02001644YS02001647 CONDUIT   1707.19     0  02:07      2.19    1.00    1.00
  YS02001647YS02001649 CONDUIT   1679.84     0  02:08      2.28    0.89    1.00
  YS02001649YS02001757 CONDUIT   1912.08     0  02:07      2.47    1.16    1.00
  YS02001652YS02001649 CONDUIT   1361.40     0  02:25      1.73    0.67    1.00
  YS02001655YS02001652 CONDUIT   1361.02     0  02:25      1.73    0.66    1.00
  YS02001658YS02001655 CONDUIT   1360.94     0  02:25      1.79    0.58    1.00
  YS02001661YS02001658 CONDUIT   1359.96     0  02:25      2.19    0.53    1.00
  YS02001664YS02001661 CONDUIT   1359.88     0  02:25      2.13    0.43    0.98
  YS02001745YS02001748 CONDUIT    844.38     0  02:25      2.02    0.33    1.00
  YS02001748YS02001751 CONDUIT    845.93     0  02:25      1.59    0.43    1.00
  YS02001751YS02001754 CONDUIT    845.98     0  02:25      1.36    0.41    1.00
  YS02001754YS02001757 CONDUIT    846.99     0  02:25      1.08    0.34    1.00
  YS02001757CaochengTiaoxuchi CONDUIT   3134.08     0  02:16      3.99    1.36    1.00
  YS02001759YS02001757 CONDUIT   1373.58     0  02:23      1.75    0.98    1.00
  YS02001762YS02001759 CONDUIT    725.10     0  02:16      0.92    0.84    1.00
  YS02001765YS02001762 CONDUIT    725.10     0  02:16      0.92    0.68    1.00
  YS02001767YS02001765 CONDUIT    725.10     0  02:16      0.92    0.91    1.00
  YS02001770YS02001767 CONDUIT    724.70     0  02:16      0.92    2.87    1.00
  YS02001774YS02001770 CONDUIT    852.05     0  02:28      1.08    0.54    1.00
  YS02001779YS02001774 CONDUIT    851.62     0  02:27      1.08    0.43    1.00
  YS02001783YS02001784 CONDUIT   1175.32     0  02:24      2.34    1.62    1.00
  YS02001784YS02001785 CONDUIT   1176.31     0  02:24      2.34    2.74    1.00
  YS02001786YS02001788 CONDUIT   1178.46     0  02:24      2.50    2.27    0.89
  YS02001788YS02001790 CONDUIT   1185.29     0  02:23      2.72    0.87    0.85
  YS02001790YS02001791 CONDUIT   1308.65     0  02:25      3.45    1.42    0.71
  YS02001791YS02001793 CONDUIT   1264.39     0  02:23      6.78    0.54    0.45
  YS02001793JiankangQianchi CONDUIT   1289.72     0  02:25      2.58    0.10    0.65
  YS02001882YS02001884 CONDUIT     27.53     0  02:04      0.17    0.03    1.00
  YS02001884YS02001887 CONDUIT     33.38     0  02:04      0.12    0.04    1.00
  YS02001887YS02001890 CONDUIT   1236.29     0  02:25      1.57    2.12    1.00
  YS02001890YS02001895 CONDUIT    518.33     0  02:21      0.66    0.24    1.00
  YS02001895YS02001898 CONDUIT    518.36     0  02:28      0.66    0.90    1.00
  YS02001898YS02001901 CONDUIT    518.65     0  02:31      0.66    0.33    1.00
  YS02001901YS02001904 CONDUIT    517.99     0  02:28      0.66    0.80    1.00
  YS02001904YS02001907 CONDUIT    518.59     0  02:21      0.66    0.18    1.00
  YS02001907YS02006553 CONDUIT    804.75     0  02:43      0.89    0.95    1.00
  YS02001910YS02001907 CONDUIT   1992.99     0  02:27      2.54    1.12    1.00
  YS02001915YS02001910 CONDUIT   1993.17     0  02:26      2.54    0.99    1.00
  YS02001918YS02001915 CONDUIT    745.24     0  02:25      0.95    0.41    1.00
  YS02001920YS02001918 CONDUIT    745.51     0  02:25      0.95    0.72    1.00
  YS02001923YS02001920 CONDUIT    741.81     0  02:25      0.94    0.33    1.00
  YS02001926YS02001923 CONDUIT    740.61     0  02:25      0.94    1.06    1.00
  YS02001929YS02001926 CONDUIT    740.94     0  02:25      1.05    0.35    1.00
  YS02006553YS02006556 CONDUIT    804.12     0  02:43      1.02    0.69    1.00
  YS02006556YS02006558 CONDUIT    806.19     0  02:43      1.03    0.64    1.00
  YS02006558YS02006561 CONDUIT   1175.27     0  02:24      4.16    2.60    1.00
  YS02006561YS02001783 CONDUIT   1175.07     0  02:24      2.34    0.61    1.00
  YS02163301YS02001633 CONDUIT    947.43     0  02:07      1.21    0.89    1.00
  YS02163601YS02164001 CONDUIT   1340.46     0  02:07      1.71    1.19    1.00
  YS02164001YS02001641 CONDUIT   1346.53     0  02:07      1.71    1.84    1.00
  CC-R1                PUMP       683.00     0  00:00              1.00
  CC-R2                PUMP       683.00     0  00:00              1.00
  CC-S1                PUMP       200.00     0  00:00              1.00
  CC-S2                PUMP       200.00     0  00:00              1.00
  JK-R1                PUMP      1000.00     0  00:00              1.00
  JK-R2                PUMP      1000.00     0  00:00              1.00
  JK-S                 PUMP       300.00     0  00:00              1.00
  
  
  ***************************
  Flow Classification Summary
  ***************************
  
  -------------------------------------------------------------------------------------
                      Adjusted    ---------- Fraction of Time in Flow Class ---------- 
                       /Actual         Up    Down  Sub   Sup   Up    Down  Norm  Inlet 
  Conduit               Length    Dry  Dry   Dry   Crit  Crit  Crit  Crit  Ltd   Ctrl  
  -------------------------------------------------------------------------------------
  1                       1.00   0.00  0.00  0.00  0.00  1.00  0.00  0.00  0.48  0.00
  WS02003060WS02003069    1.00   0.00  0.00  0.00  0.98  0.02  0.00  0.00  0.60  0.00
  WS02003066WSF200        1.00   0.12  0.00  0.00  0.00  0.88  0.00  0.00  0.72  0.00
  WS02003067WS02003066    1.00   0.10  0.02  0.00  0.88  0.00  0.00  0.00  0.00  0.00
  WS02003069WS02003072    1.00   0.00  0.00  0.00  0.99  0.01  0.00  0.00  0.67  0.00
  WS02003072WS02003073    1.00   0.00  0.00  0.00  0.00  0.00  0.00  1.00  0.00  0.00
  WS02004401WS02004402    1.00   0.02  0.00  0.00  0.98  0.00  0.00  0.00  0.00  0.00
  WS02004402WS02004403    1.00   0.02  0.00  0.00  0.97  0.00  0.00  0.00  0.00  0.00
  WS02004403WS02004404    1.00   0.00  0.03  0.00  0.97  0.00  0.00  0.00  0.00  0.00
  WS02004404WS02004405    1.00   0.00  0.00  0.00  1.00  0.00  0.00  0.00  0.01  0.00
  WS02004405WS02004406    1.00   0.00  0.00  0.00  1.00  0.00  0.00  0.00  0.00  0.00
  WS02004406WS02004407    1.00   0.00  0.05  0.00  0.95  0.00  0.00  0.00  0.00  0.00
  WS02004407WS02004409    1.00   0.05  0.00  0.00  0.94  0.01  0.00  0.00  0.94  0.00
  WS02004409WS02004410    1.00   0.05  0.00  0.00  0.95  0.00  0.00  0.00  0.03  0.00
  WS02004410WS02004411    1.00   0.05  0.00  0.00  0.95  0.00  0.00  0.00  0.01  0.00
  WS02004411WS02004412    1.00   0.05  0.00  0.00  0.95  0.00  0.00  0.00  0.00  0.00
  WS02004412WS02004413    1.00   0.05  0.00  0.00  0.94  0.00  0.00  0.00  0.01  0.00
  WS02004413WS02003067    1.00   0.06  0.04  0.00  0.00  0.00  0.90  0.00  0.00  0.00
  WS02006109WS02006110    1.00   0.00  0.01  0.00  0.98  0.00  0.01  0.00  0.00  0.00
  WS02006110WS02006113    1.00   0.01  0.01  0.00  0.98  0.00  0.00  0.00  0.00  0.00
  WS02006111WS02006112    1.00   0.02  0.00  0.00  0.98  0.00  0.00  0.00  0.98  0.00
  WS02006112WS02006115    1.00   0.02  0.00  0.00  0.97  0.00  0.00  0.00  0.00  0.00
  WS02006113WS02006111    1.00   0.02  0.00  0.00  0.00  0.98  0.00  0.00  0.16  0.00
  WS02006115WS02006116    1.00   0.02  0.00  0.00  0.97  0.00  0.00  0.01  0.00  0.00
  WS02006116WS02004401    1.00   0.02  0.00  0.00  0.98  0.00  0.00  0.00  0.00  0.00
  WS02006228WS02006109    1.00   0.00  0.00  0.00  1.00  0.00  0.00  0.00  0.00  0.00
  WS02006229WS02006228    1.00   0.00  0.00  0.00  0.99  0.00  0.00  0.01  0.00  0.00
  WS02006230WS02006229    1.00   0.00  0.00  0.00  0.99  0.00  0.00  0.01  0.02  0.00
  WS02006231WS02006230    1.00   0.00  0.00  0.00  0.35  0.00  0.64  0.00  0.00  0.00
  WS02006232WS02006231    1.00   0.00  0.00  0.00  0.99  0.00  0.01  0.00  0.00  0.00
  WS02006234WS02006232    1.00   0.00  0.00  0.00  1.00  0.00  0.00  0.00  0.11  0.00
  WS02006235WS02006234    1.00   0.00  0.00  0.00  0.80  0.00  0.20  0.00  0.00  0.00
  WS02006238WS02006235    1.00   0.00  0.00  0.00  1.00  0.00  0.00  0.00  0.00  0.00
  WS02006239WS02006238    1.00   0.00  0.00  0.00  1.00  0.00  0.00  0.00  0.24  0.00
  WS02006240WS02006239    1.00   0.00  0.00  0.00  0.68  0.00  0.00  0.32  0.02  0.00
  WS02006242WS02006240    1.00   0.00  0.00  0.00  0.99  0.00  0.01  0.00  0.00  0.00
  WS02006243WS02006242    1.00   0.00  0.00  0.00  0.99  0.00  0.00  0.01  0.40  0.00
  WS02006245WS02006243    1.00   0.00  0.00  0.00  0.75  0.00  0.00  0.25  0.01  0.00
  WS02006247WS02006245    1.00   0.00  0.00  0.00  0.99  0.00  0.00  0.01  0.00  0.00
  WS02006248WS02006247    1.00   0.00  0.00  0.00  0.99  0.00  0.00  0.01  0.19  0.00
  WS02006249WS02006248    1.00   0.00  0.00  0.00  0.61  0.00  0.39  0.00  0.00  0.00
  WS02006251WS02006249    1.00   0.00  0.00  0.00  1.00  0.00  0.00  0.00  0.41  0.00
  WS02006252WS02006251    1.00   0.00  0.42  0.00  0.15  0.00  0.42  0.00  0.00  0.00
  WS02006256WS02006235    1.00   0.00  0.00  0.00  1.00  0.00  0.00  0.00  0.00  0.00
  WSF200WS02003060        1.00   0.00  0.12  0.00  0.26  0.62  0.00  0.00  0.35  0.00
  YS02001580YS02001583    1.00   0.24  0.52  0.00  0.24  0.00  0.00  0.00  0.61  0.00
  YS02001583YS02001586    1.00   0.39  0.32  0.00  0.29  0.00  0.00  0.00  0.62  0.00
  YS02001586YS02001590    1.00   0.13  0.00  0.00  0.48  0.04  0.00  0.36  0.37  0.00
  YS02001590YS02001593    1.00   0.13  0.01  0.00  0.16  0.00  0.71  0.00  0.00  0.00
  YS02001593YS02001596    1.00   0.13  0.00  0.00  0.18  0.01  0.00  0.67  0.02  0.00
  YS02001596YS02001600    1.00   0.13  0.00  0.00  0.24  0.01  0.00  0.61  0.04  0.00
  YS02001600YS02001601    1.00   0.13  0.01  0.00  0.86  0.00  0.00  0.00  0.57  0.00
  YS02001601YS02001602    1.00   0.13  0.01  0.00  0.87  0.00  0.00  0.00  0.00  0.00
  YS02001602YS02001605    1.00   0.13  0.00  0.00  0.87  0.00  0.00  0.00  0.00  0.00
  YS02001605YS02001607    1.00   0.13  0.00  0.00  0.87  0.00  0.00  0.00  0.00  0.00
  YS02001607YS02001610    1.00   0.13  0.00  0.00  0.86  0.00  0.00  0.00  0.01  0.00
  YS02001610YS02001613    1.00   0.13  0.00  0.00  0.87  0.00  0.00  0.00  0.00  0.00
  YS02001613YS02001616    1.00   0.13  0.00  0.00  0.87  0.00  0.00  0.00  0.00  0.00
  YS02001616YS02001619    1.00   0.13  0.00  0.00  0.87  0.00  0.00  0.00  0.00  0.00
  YS02001619YS02001622    1.00   0.13  0.00  0.00  0.87  0.00  0.00  0.00  0.26  0.00
  YS02001622YS02001625    1.00   0.13  0.00  0.00  0.87  0.00  0.00  0.00  0.03  0.00
  YS02001625YS02001629    1.00   0.13  0.04  0.00  0.22  0.00  0.62  0.00  0.00  0.00
  YS02001629YS02163301    1.00   0.14  0.01  0.00  0.85  0.00  0.00  0.00  0.00  0.00
  YS02001633YS02163601    1.00   0.00  0.01  0.00  0.99  0.00  0.00  0.00  0.14  0.00
  YS02001641YS02001644    1.00   0.00  0.01  0.00  0.99  0.00  0.00  0.00  0.00  0.00
  YS02001644YS02001647    1.00   0.00  0.16  0.00  0.84  0.00  0.00  0.00  0.00  0.00
  YS02001647YS02001649    1.00   0.00  0.16  0.00  0.57  0.27  0.00  0.00  0.54  0.00
  YS02001649YS02001757    1.00   0.00  0.00  0.00  0.81  0.19  0.00  0.00  0.37  0.00
  YS02001652YS02001649    1.00   0.00  0.00  0.00  0.97  0.03  0.00  0.00  0.69  0.00
  YS02001655YS02001652    1.00   0.00  0.00  0.00  0.25  0.01  0.00  0.74  0.06  0.00
  YS02001658YS02001655    1.00   0.00  0.14  0.00  0.69  0.17  0.00  0.00  0.65  0.00
  YS02001661YS02001658    1.00   0.14  0.00  0.00  0.53  0.33  0.00  0.00  0.65  0.00
  YS02001664YS02001661    1.00   0.13  0.00  0.00  0.77  0.10  0.00  0.00  0.84  0.00
  YS02001745YS02001748    1.00   0.00  0.00  0.00  0.14  0.00  0.00  0.86  0.04  0.00
  YS02001748YS02001751    1.00   0.00  0.00  0.00  0.85  0.15  0.00  0.00  0.71  0.00
  YS02001751YS02001754    1.00   0.00  0.00  0.00  0.21  0.01  0.00  0.77  0.04  0.00
  YS02001754YS02001757    1.00   0.00  0.00  0.00  1.00  0.00  0.00  0.00  0.76  0.00
  YS02001757CaochengTiaoxuchi    1.00   0.00  0.00  0.00  0.94  0.06  0.00  0.00  0.61  0.00
  YS02001759YS02001757    1.00   0.00  0.00  0.00  0.98  0.02  0.00  0.00  0.51  0.00
  YS02001762YS02001759    1.00   0.00  0.00  0.00  1.00  0.00  0.00  0.00  0.03  0.00
  YS02001765YS02001762    1.00   0.00  0.00  0.00  1.00  0.00  0.00  0.00  0.62  0.00
  YS02001767YS02001765    1.00   0.00  0.00  0.00  1.00  0.00  0.00  0.00  0.01  0.00
  YS02001770YS02001767    1.00   0.00  0.00  0.00  1.00  0.00  0.00  0.00  0.00  0.00
  YS02001774YS02001770    1.00   0.00  0.13  0.00  0.71  0.00  0.15  0.00  0.02  0.00
  YS02001779YS02001774    1.00   0.00  0.00  0.00  1.00  0.00  0.00  0.00  0.71  0.00
  YS02001783YS02001784    1.00   0.00  0.16  0.00  0.84  0.00  0.00  0.00  0.54  0.00
  YS02001784YS02001785    1.00   0.00  0.00  0.00  1.00  0.00  0.00  0.00  0.15  0.00
  YS02001786YS02001788    1.00   0.00  0.00  0.00  0.79  0.21  0.00  0.00  0.00  0.00
  YS02001788YS02001790    1.00   0.00  0.00  0.00  0.21  0.79  0.00  0.00  0.77  0.00
  YS02001790YS02001791    1.00   0.00  0.00  0.00  0.01  0.99  0.00  0.00  0.15  0.00
  YS02001791YS02001793    1.00   0.00  0.00  0.00  0.00  1.00  0.00  0.00  0.01  0.00
  YS02001793JiankangQianchi    1.00   0.00  0.00  0.00  0.95  0.05  0.00  0.00  0.97  0.00
  YS02001882YS02001884    1.00   0.14  0.01  0.00  0.85  0.00  0.00  0.00  0.00  0.00
  YS02001884YS02001887    1.00   0.06  0.05  0.00  0.89  0.00  0.00  0.00  0.00  0.00
  YS02001887YS02001890    1.00   0.00  0.00  0.00  0.97  0.00  0.03  0.00  0.00  0.00
  YS02001890YS02001895    1.00   0.00  0.15  0.00  0.85  0.00  0.00  0.00  0.00  0.00
  YS02001895YS02001898    1.00   0.15  0.00  0.00  0.83  0.00  0.01  0.00  0.00  0.00
  YS02001898YS02001901    1.00   0.15  0.00  0.00  0.85  0.00  0.00  0.00  0.01  0.00
  YS02001901YS02001904    1.00   0.15  0.00  0.00  0.85  0.00  0.00  0.00  0.00  0.00
  YS02001904YS02001907    1.00   0.00  0.15  0.00  0.85  0.00  0.00  0.00  0.00  0.00
  YS02001907YS02006553    1.00   0.00  0.02  0.00  0.98  0.00  0.00  0.00  0.00  0.00
  YS02001910YS02001907    1.00   0.00  0.00  0.00  0.97  0.00  0.00  0.03  0.11  0.00
  YS02001915YS02001910    1.00   0.00  0.00  0.00  0.97  0.03  0.00  0.00  0.13  0.00
  YS02001918YS02001915    1.00   0.00  0.01  0.00  0.98  0.02  0.00  0.00  0.70  0.00
  YS02001920YS02001918    1.00   0.00  0.01  0.00  0.99  0.00  0.00  0.00  0.00  0.00
  YS02001923YS02001920    1.00   0.00  0.00  0.00  1.00  0.00  0.00  0.00  0.89  0.00
  YS02001926YS02001923    1.00   0.00  0.07  0.00  0.09  0.00  0.83  0.00  0.00  0.00
  YS02001929YS02001926    1.00   0.00  0.13  0.00  0.87  0.00  0.00  0.00  0.79  0.00
  YS02006553YS02006556    1.00   0.01  0.00  0.00  0.99  0.00  0.00  0.00  0.03  0.00
  YS02006556YS02006558    1.00   0.00  0.00  0.00  1.00  0.00  0.00  0.00  0.00  0.00
  YS02006558YS02006561    1.00   0.16  0.00  0.00  0.08  0.75  0.00  0.00  0.17  0.00
  YS02006561YS02001783    1.00   0.16  0.00  0.00  0.13  0.70  0.00  0.00  0.65  0.00
  YS02163301YS02001633    1.00   0.00  0.14  0.00  0.86  0.00  0.00  0.00  0.00  0.00
  YS02163601YS02164001    1.00   0.00  0.08  0.00  0.92  0.00  0.00  0.00  0.00  0.00
  YS02164001YS02001641    1.00   0.01  0.07  0.00  0.92  0.00  0.00  0.00  0.05  0.00
  
  
  *************************
  Conduit Surcharge Summary
  *************************
  
  ----------------------------------------------------------------------------
                                                           Hours        Hours 
                         --------- Hours Full --------   Above Full   Capacity
  Conduit                Both Ends  Upstream  Dnstream   Normal Flow   Limited
  ----------------------------------------------------------------------------
  WS02003072WS02003073        0.01      0.01      0.01      1.56         0.01
  WS02004403WS02004404        0.01      0.01      0.06      0.01         0.01
  WS02004404WS02004405        0.01      0.06      0.01      4.57         0.01
  WS02004405WS02004406        0.01      0.01      0.01      1.07         0.01
  WS02006109WS02006110        1.04      1.04      2.53      1.15         0.01
  WS02006110WS02006113        0.01      0.01      2.44      0.01         0.01
  WS02006111WS02006112        0.01      0.01      3.29      0.01         0.01
  WS02006112WS02006115        0.01      0.01      1.27      0.01         0.01
  WS02006228WS02006109        2.37      2.53      2.37      3.58         2.37
  WS02006229WS02006228        2.36      2.39      2.36      3.02         2.35
  WS02006230WS02006229        2.68      2.94      2.68      4.97         2.68
  WS02006231WS02006230        1.04      1.04      1.23      4.77         0.01
  WS02006232WS02006231        1.18      1.18      2.55      1.24         0.01
  WS02006234WS02006232        2.32      2.33      2.55      1.23         1.21
  WS02006235WS02006234        1.56      1.56      2.37      4.61         0.02
  WS02006238WS02006235        2.40      2.40      2.56      0.01         0.01
  WS02006239WS02006238        2.45      2.52      2.46      2.62         2.02
  WS02006240WS02006239        2.29      2.33      2.32      2.61         1.81
  WS02006242WS02006240        2.31      2.31      2.60      2.95         0.01
  WS02006243WS02006242        2.30      2.30      2.48      0.01         0.04
  WS02006245WS02006243        2.26      2.28      2.27      1.58         1.37
  WS02006247WS02006245        2.26      2.32      2.26      4.38         2.24
  WS02006248WS02006247        2.25      2.25      2.29      0.01         0.04
  WS02006249WS02006248        2.23      2.23      2.26      4.35         0.01
  WS02006251WS02006249        2.26      2.28      2.26      2.77         2.18
  WS02006252WS02006251        2.83      2.84      2.84      2.84         0.01
  WS02006256WS02006235        4.65      4.68      6.04      1.65         0.01
  YS02001580YS02001583        0.95      0.95      1.01      0.01         0.01
  YS02001583YS02001586        0.96      0.96      1.08      0.01         0.01
  YS02001586YS02001590        1.09      1.09      1.16      0.01         0.01
  YS02001590YS02001593        1.16      1.16      1.19      1.15         0.01
  YS02001593YS02001596        1.17      1.17      1.29      0.01         0.01
  YS02001596YS02001600        1.36      1.36      1.47      0.01         0.01
  YS02001600YS02001601        1.53      1.53      1.82      0.01         0.01
  YS02001601YS02001602        1.71      1.71      1.86      1.47         0.01
  YS02001602YS02001605        1.66      1.66      1.71      2.62         0.01
  YS02001605YS02001607        1.61      1.66      1.62      1.75         1.59
  YS02001607YS02001610        1.15      1.15      1.17      0.01         0.01
  YS02001610YS02001613        1.14      1.14      1.17      0.01         0.01
  YS02001613YS02001616        1.10      1.10      1.14      0.01         0.01
  YS02001616YS02001619        1.08      1.08      1.10      0.16         0.14
  YS02001619YS02001622        1.08      1.08      1.08      1.15         1.03
  YS02001622YS02001625        1.08      1.08      1.28      0.01         0.01
  YS02001625YS02001629        1.01      1.01      1.28      0.01         0.01
  YS02001629YS02163301        1.27      1.27      1.28      0.19         0.22
  YS02001633YS02163601        1.31      1.31      1.35      0.39         0.38
  YS02001641YS02001644        1.20      1.24      1.20      1.89         1.18
  YS02001644YS02001647        0.94      0.94      1.20      0.01         0.01
  YS02001647YS02001649        0.94      0.94      1.05      0.01         0.01
  YS02001649YS02001757        1.04      1.05      1.11      0.23         0.11
  YS02001652YS02001649        0.90      0.90      1.05      0.01         0.01
  YS02001655YS02001652        0.72      0.72      0.89      0.01         0.01
  YS02001658YS02001655        0.42      0.42      0.72      0.01         0.01
  YS02001661YS02001658        0.16      0.16      0.42      0.01         0.01
  YS02001664YS02001661        0.01      0.01      0.22      0.01         0.01
  YS02001745YS02001748        0.01      0.01      0.34      0.01         0.01
  YS02001748YS02001751        0.39      0.39      0.56      0.01         0.01
  YS02001751YS02001754        0.56      0.56      0.81      0.01         0.01
  YS02001754YS02001757        0.85      0.85      1.11      0.01         0.01
  YS02001757CaochengTiaoxuchi        1.08      1.11      1.95      0.59         0.49
  YS02001759YS02001757        1.02      1.02      1.11      0.01         0.01
  YS02001762YS02001759        0.99      0.99      1.02      0.01         0.02
  YS02001765YS02001762        0.95      0.95      0.99      0.01         0.01
  YS02001767YS02001765        0.93      0.93      0.95      0.01         0.02
  YS02001770YS02001767        0.93      0.93      0.93      0.79         0.60
  YS02001774YS02001770        0.92      0.92      0.98      0.01         0.01
  YS02001779YS02001774        0.80      0.80      0.98      0.01         0.01
  YS02001783YS02001784        0.77      0.80      0.77      1.02         0.77
  YS02001784YS02001785        0.63      0.77      0.63      1.34         0.63
  YS02001786YS02001788        0.01      0.63      0.01      1.19         0.01
  YS02001790YS02001791        0.01      0.01      0.01      0.75         0.01
  YS02001793JiankangQianchi        0.01      0.01      7.35      0.01         0.01
  YS02001882YS02001884        0.73      0.73      0.74      0.01         0.01
  YS02001884YS02001887        0.77      0.77      0.78      0.01         0.01
  YS02001887YS02001890        0.80      0.80      0.82      0.23         0.01
  YS02001890YS02001895        0.71      0.71      0.84      0.01         0.01
  YS02001895YS02001898        0.71      0.71      0.71      0.01         0.01
  YS02001898YS02001901        0.72      0.72      0.77      0.01         0.01
  YS02001901YS02001904        0.76      0.76      0.77      0.01         0.01
  YS02001904YS02001907        0.76      0.76      1.18      0.01         0.01
  YS02001907YS02006553        1.36      1.36      1.42      0.01         0.01
  YS02001910YS02001907        0.84      0.84      1.15      0.11         0.11
  YS02001915YS02001910        0.72      0.72      0.84      0.01         0.01
  YS02001918YS02001915        0.62      0.62      0.72      0.01         0.01
  YS02001920YS02001918        0.62      0.62      0.63      0.01         0.01
  YS02001923YS02001920        0.57      0.57      0.63      0.01         0.01
  YS02001926YS02001923        0.24      0.24      0.28      0.05         0.01
  YS02001929YS02001926        0.13      0.13      0.28      0.01         0.01
  YS02006553YS02006556        0.97      0.97      1.17      0.01         0.01
  YS02006556YS02006558        1.08      1.08      1.20      0.01         0.01
  YS02006558YS02006561        0.66      0.95      0.66      1.29         0.66
  YS02006561YS02001783        0.57      0.57      0.80      0.01         0.01
  YS02163301YS02001633        1.28      1.28      1.33      0.01         0.01
  YS02163601YS02164001        1.24      1.24      1.35      0.18         0.01
  YS02164001YS02001641        1.24      1.24      1.24      0.83         0.75
  
  
  ***************
  Pumping Summary
  ***************
  
  ---------------------------------------------------------------------------------------------------------
                                                  Min       Avg       Max     Total     Power    % Time Off
                        Percent   Number of      Flow      Flow      Flow    Volume     Usage    Pump Curve
  Pump                 Utilized   Start-Ups       LPS       LPS       LPS  10^6 ltr     Kw-hr    Low   High
  ---------------------------------------------------------------------------------------------------------
  CC-R1                   22.88           5      0.00    683.00    683.00     4.501     84.47    0.0   21.8
  CC-R2                   23.60           4      0.00    683.00    683.00     4.643     86.34    0.0   29.0
  CC-S1                   50.10          12      0.00    200.00    200.00     2.886     17.18    0.0    0.0
  CC-S2                   40.75          11      0.00    200.00    200.00     2.347     13.85    0.0    0.0
  JK-R1                    7.11          15      0.00   1000.00   1000.00     2.047     19.80    0.0    0.0
  JK-R2                    5.44          13      0.00   1000.00   1000.00     1.567     14.44    0.0    0.0
  JK-S                    20.55          14      0.00    300.00    300.00     1.776     29.11    0.0    0.0
  

  Analysis begun on:  Wed Jan 15 10:21:42 2025
  Analysis ended on:  Wed Jan 15 10:21:43 2025
  Total elapsed time: 00:00:01