
  EPA STORM WATER MANAGEMENT MODEL - VERSION 5.2 (Build 5.2.4)
  PYSWMM TOOLKIT API - VERSION v1.0 (2023-11-27)
  ------------------------------------------------------------

  WARNING 04: minimum elevation drop used for Conduit WS02004404WS02004405
  WARNING 03: negative offset ignored for Link YS02001904YS02001907
  
  ****************
  Analysis Options
  ****************
  Flow Units ............... LPS
  Process Models:
    Rainfall/Runoff ........ YES
    RDII ................... NO
    Snowmelt ............... NO
    Groundwater ............ NO
    Flow Routing ........... YES
    Ponding Allowed ........ NO
    Water Quality .......... NO
  Infiltration Method ...... HORTON
  Flow Routing Method ...... DYNWAVE
  Surcharge Method ......... EXTRAN
  Starting Date ............ 08/28/2015 08:00:00
  Ending Date .............. 08/28/2015 16:00:00
  Antecedent Dry Days ...... 8.0
  Report Time Step ......... 00:01:00
  Wet Time Step ............ 00:01:00
  Dry Time Step ............ 00:01:00
  Routing Time Step ........ 30.00 sec
  Variable Time Step ....... YES
  Maximum Trials ........... 8
  Number of Threads ........ 4
  Head Tolerance ........... 0.001500 m
  
  
  **************************        Volume         Depth
  Runoff Quantity Continuity     hectare-m            mm
  **************************     ---------       -------
  Total Precipitation ......         2.707        81.619
  Evaporation Loss .........         0.000         0.000
  Infiltration Loss ........         0.105         3.172
  Surface Runoff ...........         2.570        77.468
  Final Storage ............         0.033         0.997
  Continuity Error (%) .....        -0.021
  
  
  **************************        Volume        Volume
  Flow Routing Continuity        hectare-m      10^6 ltr
  **************************     ---------     ---------
  Dry Weather Inflow .......         0.025         0.251
  Wet Weather Inflow .......         2.570        25.697
  Groundwater Inflow .......         0.000         0.000
  RDII Inflow ..............         0.000         0.000
  External Inflow ..........         0.083         0.834
  External Outflow .........         1.776        17.759
  Flooding Loss ............         0.966         9.657
  Evaporation Loss .........         0.000         0.000
  Exfiltration Loss ........         0.000         0.000
  Initial Stored Volume ....         0.243         2.431
  Final Stored Volume ......         0.186         1.855
  Continuity Error (%) .....        -0.201
  
  
  *************************
  Highest Continuity Errors
  *************************
  Node YS02001884 (5.07%)
  Node YS02001583 (-2.20%)
  
  
  ***************************
  Time-Step Critical Elements
  ***************************
  Link WS02006252WS02006251 (63.94%)
  Link WS02006238WS02006235 (8.21%)
  Link WS02004404WS02004405 (7.69%)
  Link YS02001791YS02001793 (5.70%)
  Link WS02006235WS02006234 (5.43%)
  
  
  ********************************
  Highest Flow Instability Indexes
  ********************************
  Link WS02006113WS02006111 (57)
  Link WS02006111WS02006112 (26)
  Link WS02006238WS02006235 (14)
  Link WS02006256WS02006235 (12)
  Link WS02006252WS02006251 (12)
  
  
  *********************************
  Most Frequent Nonconverging Nodes
  *********************************
  Node CC-1 (7.73%)
  Node CC-2 (7.73%)
  Node JK-1 (7.73%)
  Node JK-2 (7.73%)
  Node WSC (7.73%)
  
  
  *************************
  Routing Time Step Summary
  *************************
  Minimum Time Step           :     0.01 sec
  Average Time Step           :     1.51 sec
  Maximum Time Step           :     8.35 sec
  % of Time in Steady State   :     0.00
  Average Iterations per Step :     2.77
  % of Steps Not Converging   :     7.73
  Time Step Frequencies       :
     30.000 - 13.228 sec      :     0.00 %
     13.228 -  5.833 sec      :     5.82 %
      5.833 -  2.572 sec      :    10.56 %
      2.572 -  1.134 sec      :    16.70 %
      1.134 -  0.500 sec      :    66.92 %
  
  
  ***************************
  Subcatchment Runoff Summary
  ***************************
  
  ------------------------------------------------------------------------------------------------------------------------------
                            Total      Total      Total      Total     Imperv       Perv      Total       Total     Peak  Runoff
                           Precip      Runon       Evap      Infil     Runoff     Runoff     Runoff      Runoff   Runoff   Coeff
  Subcatchment                 mm         mm         mm         mm         mm         mm         mm    10^6 ltr      LPS
  ------------------------------------------------------------------------------------------------------------------------------
  sub60                     81.62       0.00       0.00       1.87      70.63       7.92      78.55        1.03   722.22   0.962
  sub61                     81.62       0.00       0.00       2.73      66.62      11.15      77.77        1.43  1005.30   0.953
  sub62                     81.62       0.00       0.00       1.25      73.81       5.28      79.09        2.17  1422.87   0.969
  sub63                     81.62       0.00       0.00       5.07      56.98      18.60      75.58        1.72  1159.39   0.926
  sub64                     81.62       0.00       0.00       2.56      68.17       9.69      77.86        1.87  1176.32   0.954
  sub65                     81.62       0.00       0.00       2.21      69.76       8.40      78.15        2.15  1316.04   0.958
  sub66                     81.62       0.00       0.00       6.34      56.87      17.33      74.20        3.46  1807.35   0.909
  sub67                     81.62       0.00       0.00       1.20      73.85       5.34      79.19        1.47  1069.49   0.970
  sub68                     81.62       0.00       0.00       2.26      69.01       9.17      78.18        2.15  1458.83   0.958
  sub69                     81.62       0.00       0.00       2.06      69.27      10.19      79.45        2.94  1748.21   0.973
  sub70                     81.62       0.00       0.00       6.92      53.70      20.83      74.53        2.15  1017.95   0.913
  sub71                     81.62       0.00       0.00       1.29      73.76       5.24      79.01        2.07  1266.79   0.968
  sub72                     81.62       0.00       0.00       1.15      74.50       4.57      79.07        1.09   617.94   0.969
  
  
  ******************
  Node Depth Summary
  ******************
  
  ---------------------------------------------------------------------------------
                                 Average  Maximum  Maximum  Time of Max    Reported
                                   Depth    Depth      HGL   Occurrence   Max Depth
  Node                 Type       Meters   Meters   Meters  days hr:min      Meters
  ---------------------------------------------------------------------------------
  WS02003060           JUNCTION     0.26     0.38     5.32     0  02:44        0.38
  WS02003066           JUNCTION     0.21     0.30     5.85     0  02:44        0.30
  WS02003067           JUNCTION     0.54     0.70     6.02     0  03:00        0.70
  WS02003069           JUNCTION     0.29     0.43     5.01     0  02:39        0.43
  WS02003072           JUNCTION     0.35     0.50     4.87     0  02:40        0.50
  WS02003073           JUNCTION     0.20     0.30     4.36     0  02:41        0.30
  WS02004401           JUNCTION     0.62     0.85     6.85     0  03:00        0.85
  WS02004402           JUNCTION     0.65     0.88     6.84     0  03:00        0.88
  WS02004403           JUNCTION     0.68     0.89     6.82     0  03:01        0.89
  WS02004404           JUNCTION     0.75     0.96     6.81     0  03:01        0.96
  WS02004405           JUNCTION     0.75     0.96     6.81     0  03:01        0.96
  WS02004406           JUNCTION     0.76     0.96     6.79     0  03:01        0.96
  WS02004407           JUNCTION     0.20     0.30     6.61     0  02:36        0.30
  WS02004409           JUNCTION     0.43     0.67     6.44     0  02:36        0.67
  WS02004410           JUNCTION     0.46     0.68     6.40     0  02:37        0.68
  WS02004411           JUNCTION     0.48     0.69     6.37     0  02:37        0.69
  WS02004412           JUNCTION     0.50     0.70     6.34     0  02:37        0.70
  WS02004413           JUNCTION     0.66     0.86     6.33     0  02:38        0.86
  WS02006109           JUNCTION     0.69     1.15     7.76     0  03:16        1.15
  WS02006110           JUNCTION     0.69     1.13     7.72     0  03:16        1.13
  WS02006111           JUNCTION     0.19     0.29     6.99     0  02:49        0.29
  WS02006112           JUNCTION     0.78     1.07     6.96     0  03:16        1.06
  WS02006113           JUNCTION     0.30     0.46     7.35     0  03:10        0.46
  WS02006115           JUNCTION     0.51     0.75     6.89     0  03:00        0.75
  WS02006116           JUNCTION     0.59     0.83     6.87     0  03:00        0.83
  WS02006228           JUNCTION     0.68     1.13     7.78     0  03:16        1.13
  WS02006229           JUNCTION     0.65     1.15     7.84     0  03:05        1.10
  WS02006230           JUNCTION     0.65     1.32     8.06     0  03:05        1.18
  WS02006231           JUNCTION     0.45     1.22     8.34     0  02:45        0.93
  WS02006232           JUNCTION     0.59     1.31     8.35     0  02:45        1.14
  WS02006234           JUNCTION     0.51     1.33     8.49     0  02:45        1.17
  WS02006235           JUNCTION     0.55     1.49     8.65     0  02:45        1.30
  WS02006238           JUNCTION     0.58     1.53     8.68     0  02:45        1.30
  WS02006239           JUNCTION     0.54     1.52     8.72     0  02:45        1.30
  WS02006240           JUNCTION     0.50     1.48     8.77     0  02:45        1.27
  WS02006242           JUNCTION     0.58     1.54     8.81     0  02:45        1.43
  WS02006243           JUNCTION     0.47     1.48     8.90     0  01:58        1.23
  WS02006245           JUNCTION     0.47     1.33     8.82     0  02:45        1.19
  WS02006247           JUNCTION     0.49     1.27     8.77     0  02:45        1.18
  WS02006248           JUNCTION     0.45     1.10     8.69     0  02:42        1.10
  WS02006249           JUNCTION     0.48     1.09     8.69     0  01:59        1.09
  WS02006251           JUNCTION     0.47     1.65     9.32     0  01:59        1.14
  WS02006252           JUNCTION     0.36     1.50     9.74     0  00:00        0.71
  WS02006256           JUNCTION     1.01     2.35     9.28     0  00:00        2.35
  WSF200               JUNCTION     0.19     0.29     5.52     0  03:00        0.29
  YS02001580           JUNCTION     0.08     0.98     9.53     0  02:06        0.77
  YS02001583           JUNCTION     0.12     1.01     9.51     0  02:06        0.82
  YS02001586           JUNCTION     0.18     1.13     9.30     0  02:06        1.13
  YS02001590           JUNCTION     0.27     1.38     9.24     0  02:06        1.38
  YS02001593           JUNCTION     0.21     1.32     9.19     0  02:06        1.29
  YS02001596           JUNCTION     0.29     1.68     9.10     0  02:45        1.68
  YS02001600           JUNCTION     0.35     1.87     9.00     0  02:06        1.86
  YS02001601           JUNCTION     0.53     2.06     8.90     0  02:05        2.06
  YS02001602           JUNCTION     0.45     1.87     8.77     0  02:11        1.87
  YS02001605           JUNCTION     0.41     1.78     8.68     0  02:17        1.78
  YS02001607           JUNCTION     0.41     1.68     8.53     0  02:42        1.66
  YS02001610           JUNCTION     0.46     1.68     8.48     0  02:12        1.68
  YS02001613           JUNCTION     0.42     1.67     8.51     0  02:43        1.67
  YS02001616           JUNCTION     0.34     1.61     8.52     0  02:17        1.61
  YS02001619           JUNCTION     0.32     1.61     8.54     0  02:17        1.61
  YS02001622           JUNCTION     0.31     1.58     8.49     0  02:26        1.58
  YS02001625           JUNCTION     0.59     1.78     8.38     0  02:12        1.78
  YS02001629           JUNCTION     0.43     1.85     8.40     0  02:13        1.85
  YS02001633           JUNCTION     0.51     2.05     8.50     0  02:42        2.05
  YS02001641           JUNCTION     0.49     2.10     8.54     0  02:42        2.10
  YS02001644           JUNCTION     0.49     1.92     8.35     0  02:16        1.92
  YS02001647           JUNCTION     0.27     1.85     8.46     0  02:42        1.85
  YS02001649           JUNCTION     0.31     2.01     8.40     0  02:23        2.01
  YS02001652           JUNCTION     0.21     1.87     8.47     0  02:24        1.87
  YS02001655           JUNCTION     0.16     1.69     8.54     0  02:24        1.69
  YS02001658           JUNCTION     0.11     1.47     8.62     0  02:24        1.47
  YS02001661           JUNCTION     0.15     1.28     8.68     0  02:24        1.26
  YS02001664           JUNCTION     0.05     0.77     8.70     0  02:24        0.76
  YS02001745           JUNCTION     0.06     0.95     8.47     0  02:24        0.94
  YS02001748           JUNCTION     0.11     1.41     8.49     0  02:17        1.37
  YS02001751           JUNCTION     0.13     1.53     8.41     0  02:24        1.52
  YS02001754           JUNCTION     0.18     1.77     8.38     0  02:24        1.77
  YS02001757           JUNCTION     0.33     2.09     8.35     0  02:24        2.09
  YS02001759           JUNCTION     0.27     2.09     8.46     0  02:24        2.09
  YS02001762           JUNCTION     0.26     2.07     8.47     0  02:43        2.07
  YS02001765           JUNCTION     0.24     2.10     8.55     0  02:43        2.10
  YS02001767           JUNCTION     0.24     2.03     8.52     0  02:43        2.03
  YS02001770           JUNCTION     0.25     1.95     8.44     0  02:22        1.95
  YS02001774           JUNCTION     0.32     2.00     8.42     0  02:25        2.00
  YS02001779           JUNCTION     0.16     1.68     8.37     0  02:13        1.68
  YS02001783           JUNCTION     0.22     1.25     7.39     0  02:22        1.24
  YS02001784           JUNCTION     0.24     1.13     7.20     0  02:22        1.12
  YS02001786           JUNCTION     0.20     0.89     6.92     0  02:22        0.87
  YS02001788           JUNCTION     0.14     0.62     6.60     0  02:22        0.62
  YS02001790           JUNCTION     0.17     0.73     6.37     0  02:22        0.73
  YS02001791           JUNCTION     0.11     0.44     5.91     0  02:20        0.42
  YS02001793           JUNCTION     0.06     0.28     5.12     0  02:36        0.28
  YS02001882           JUNCTION     0.29     1.70     8.42     0  02:12        1.68
  YS02001884           JUNCTION     0.38     1.78     8.40     0  02:12        1.78
  YS02001887           JUNCTION     0.46     1.86     8.39     0  02:22        1.86
  YS02001890           JUNCTION     0.49     1.81     8.32     0  02:12        1.81
  YS02001895           JUNCTION     0.26     1.57     8.31     0  02:19        1.56
  YS02001898           JUNCTION     0.27     1.58     8.31     0  02:17        1.56
  YS02001901           JUNCTION     0.38     1.69     8.30     0  02:17        1.67
  YS02001904           JUNCTION     0.36     1.65     8.28     0  02:17        1.64
  YS02001907           JUNCTION     0.69     1.96     8.25     0  02:12        1.96
  YS02001910           JUNCTION     0.49     2.00     8.50     0  02:24        2.00
  YS02001915           JUNCTION     0.29     1.98     8.70     0  02:24        1.97
  YS02001918           JUNCTION     0.15     1.69     8.76     0  02:14        1.67
  YS02001920           JUNCTION     0.23     1.82     8.83     0  02:14        1.75
  YS02001923           JUNCTION     0.11     1.64     8.90     0  02:14        1.52
  YS02001926           JUNCTION     0.15     1.51     8.95     0  02:14        1.36
  YS02001929           JUNCTION     0.08     1.35     9.05     0  02:14        1.14
  YS02006553           JUNCTION     0.70     2.00     8.28     0  02:22        2.00
  YS02006556           JUNCTION     0.67     1.99     8.30     0  02:22        1.99
  YS02006558           JUNCTION     0.71     2.05     8.32     0  02:17        2.05
  YS02006561           JUNCTION     0.14     0.91     7.57     0  02:22        0.91
  YS02163301           JUNCTION     0.45     2.03     8.55     0  02:42        2.03
  YS02163601           JUNCTION     0.55     2.08     8.48     0  02:42        2.08
  YS02164001           JUNCTION     0.48     2.10     8.56     0  02:42        2.10
  CC-1                 OUTFALL      0.00     0.00     0.00     0  00:00        0.00
  CC-2                 OUTFALL      0.00     0.00     0.00     0  00:00        0.00
  JK-1                 OUTFALL      0.00     0.00     0.00     0  00:00        0.00
  JK-2                 OUTFALL      0.00     0.00     0.00     0  00:00        0.00
  WSC                  OUTFALL      0.20     0.30     0.97     0  02:41        0.30
  CC-storage           STORAGE      0.84     1.79     7.29     0  02:49        1.79
  JK-storage           STORAGE      2.87     4.22     5.02     0  02:35        4.15
  
  
  *******************
  Node Inflow Summary
  *******************
  
  -------------------------------------------------------------------------------------------------
                                  Maximum  Maximum                  Lateral       Total        Flow
                                  Lateral    Total  Time of Max      Inflow      Inflow     Balance
                                   Inflow   Inflow   Occurrence      Volume      Volume       Error
  Node                 Type           LPS      LPS  days hr:min    10^6 ltr    10^6 ltr     Percent
  -------------------------------------------------------------------------------------------------
  WS02003060           JUNCTION     16.53   553.09     0  03:00       0.476        6.56       0.031
  WS02003066           JUNCTION      0.00   536.44     0  02:38           0        6.09       0.021
  WS02003067           JUNCTION      0.00   536.43     0  02:38           0        6.09       0.067
  WS02003069           JUNCTION      0.32   553.32     0  02:45     0.00922        6.57       0.054
  WS02003072           JUNCTION      0.00   553.26     0  02:40           0        6.57       0.099
  WS02003073           JUNCTION      1.82   555.06     0  02:40      0.0524        6.61       0.078
  WS02004401           JUNCTION      0.00   538.25     0  02:47           0        6.19       0.161
  WS02004402           JUNCTION      0.00   537.57     0  03:00           0        6.18       0.164
  WS02004403           JUNCTION      0.00   537.40     0  03:00           0        6.17       0.160
  WS02004404           JUNCTION      0.16   537.11     0  03:01     0.00467        6.17       0.134
  WS02004405           JUNCTION      0.04   537.13     0  03:01      0.0011        6.16       0.200
  WS02004406           JUNCTION      0.00   537.39     0  03:01           0        6.15       0.331
  WS02004407           JUNCTION      0.00   536.84     0  03:01           0        6.13       0.016
  WS02004409           JUNCTION      0.00   536.68     0  02:36           0        6.13       0.038
  WS02004410           JUNCTION      0.00   536.67     0  02:58           0        6.12       0.066
  WS02004411           JUNCTION      0.00   536.57     0  02:59           0        6.12       0.086
  WS02004412           JUNCTION      0.00   536.50     0  02:37           0        6.11       0.117
  WS02004413           JUNCTION      0.00   536.47     0  02:59           0        6.11       0.208
  WS02006109           JUNCTION      1.23   553.56     0  03:06      0.0354        6.23       0.105
  WS02006110           JUNCTION      0.00   552.75     0  03:06           0        6.23       0.100
  WS02006111           JUNCTION      0.00   560.18     0  03:08           0        6.22       0.008
  WS02006112           JUNCTION      0.00   542.41     0  02:49           0        6.22       0.281
  WS02006113           JUNCTION      0.00   564.58     0  02:46           0        6.22       0.028
  WS02006115           JUNCTION      0.00   547.75     0  02:53           0         6.2       0.100
  WS02006116           JUNCTION      0.00   539.18     0  03:00           0         6.2       0.076
  WS02006228           JUNCTION      0.00   551.63     0  03:06           0         6.2       0.017
  WS02006229           JUNCTION      0.00   551.90     0  03:06           0         6.2       0.072
  WS02006230           JUNCTION     10.28   589.74     0  03:15       0.296        6.21       0.051
  WS02006231           JUNCTION      0.00   571.14     0  03:05           0        5.91      -0.006
  WS02006232           JUNCTION      0.00   570.17     0  03:05           0        5.92       0.146
  WS02006234           JUNCTION      0.00   566.74     0  03:05           0        5.91      -0.114
  WS02006235           JUNCTION      0.00   560.41     0  03:05           0        5.93       0.137
  WS02006238           JUNCTION      0.00   422.79     0  03:13           0        4.84      -0.115
  WS02006239           JUNCTION      0.00   422.31     0  03:13           0        4.83      -0.186
  WS02006240           JUNCTION      0.00   419.84     0  03:13           0        4.82      -0.057
  WS02006242           JUNCTION      0.00   420.40     0  03:13           0        4.82       0.001
  WS02006243           JUNCTION      0.00   419.70     0  03:13           0        4.81      -0.060
  WS02006245           JUNCTION      0.00   419.85     0  03:16           0        4.83       0.231
  WS02006247           JUNCTION      0.00   420.61     0  03:16           0        4.83       0.001
  WS02006248           JUNCTION      0.00   420.77     0  03:16           0        4.83       0.025
  WS02006249           JUNCTION      0.00   462.44     0  01:25           0        5.07       0.159
  WS02006251           JUNCTION      0.08   407.55     0  01:59     0.00222        5.07       0.020
  WS02006252           JUNCTION      0.00   400.00     0  00:00           0        5.06      -0.117
  WS02006256           JUNCTION      0.00   300.00     0  00:00           0        1.57      -0.478
  WSF200               JUNCTION      0.00   536.45     0  02:44           0        6.09       0.006
  YS02001580           JUNCTION      0.00    59.30     0  02:05           0     0.00413       1.235
  YS02001583           JUNCTION      0.00    97.08     0  02:05           0       0.016      -2.153
  YS02001586           JUNCTION   1017.95  1017.98     0  02:26        2.15        2.17       0.037
  YS02001590           JUNCTION      0.00   318.85     0  02:43           0        1.53      -0.028
  YS02001593           JUNCTION      0.00   319.21     0  02:43           0        1.53       0.003
  YS02001596           JUNCTION      0.00   318.07     0  02:42           0        1.53      -0.006
  YS02001600           JUNCTION      0.00   318.06     0  02:42           0        1.53       0.027
  YS02001601           JUNCTION   1748.21  2065.81     0  02:25        2.94        4.48       0.016
  YS02001602           JUNCTION      0.00   494.33     0  02:05           0        2.58       0.018
  YS02001605           JUNCTION      0.00   494.02     0  02:05           0        2.43       0.022
  YS02001607           JUNCTION      0.00   493.66     0  02:05           0        2.43       0.085
  YS02001610           JUNCTION      0.00   952.43     0  02:27           0        2.87       0.079
  YS02001613           JUNCTION      0.00   616.17     0  02:27           0        2.29       0.073
  YS02001616           JUNCTION      0.00   615.99     0  02:27           0        2.29       0.022
  YS02001619           JUNCTION   1807.35  1807.35     0  02:26        3.46        5.31       0.000
  YS02001622           JUNCTION      0.00  1053.81     0  02:27           0        4.84       0.000
  YS02001625           JUNCTION      0.00  1504.22     0  02:28           0        5.19       0.197
  YS02001629           JUNCTION      0.00   929.23     0  02:11           0        3.91       0.021
  YS02001633           JUNCTION   1316.24  1332.44     0  02:12        2.16        5.66       0.063
  YS02001641           JUNCTION      0.00  1332.49     0  02:12           0        5.25       0.052
  YS02001644           JUNCTION   1176.36  1983.19     0  02:25        1.87        7.14       0.048
  YS02001647           JUNCTION      0.00  1697.16     0  02:12           0        6.22       0.007
  YS02001649           JUNCTION      0.00  1946.30     0  02:12           0        7.92      -0.000
  YS02001652           JUNCTION      0.00  1169.37     0  02:25           0        1.72      -0.062
  YS02001655           JUNCTION      0.15  1168.70     0  02:25     0.00443        1.72      -0.006
  YS02001658           JUNCTION      0.00  1168.93     0  02:25           0        1.72      -0.016
  YS02001661           JUNCTION      0.00  1168.49     0  02:25           0        1.72       0.009
  YS02001664           JUNCTION   1159.39  1159.39     0  02:25        1.72        1.72      -0.009
  YS02001745           JUNCTION    722.23   722.23     0  02:25        1.03        1.03       0.143
  YS02001748           JUNCTION      0.04   724.63     0  02:25      0.0013        1.03      -0.195
  YS02001751           JUNCTION      0.01   725.10     0  02:25    0.000317        1.04       0.025
  YS02001754           JUNCTION      0.26   725.82     0  02:25     0.00749        1.05      -0.120
  YS02001757           JUNCTION      0.00  3142.94     0  02:19           0        12.1       0.029
  YS02001759           JUNCTION   1005.34  1355.94     0  02:25        1.43        3.18      -0.009
  YS02001762           JUNCTION      0.00   722.80     0  02:19           0        1.75      -0.011
  YS02001765           JUNCTION      0.00   722.92     0  02:19           0        1.75      -0.001
  YS02001767           JUNCTION      0.54   723.59     0  02:19      0.0154        1.75       0.006
  YS02001770           JUNCTION   1423.02  1423.02     0  02:25        2.17        2.22      -0.016
  YS02001774           JUNCTION      0.00   850.17     0  02:26           0       0.473       0.242
  YS02001779           JUNCTION      0.01   850.01     0  02:26    0.000144       0.427      -0.088
  YS02001783           JUNCTION      0.00  1169.37     0  02:24           0        4.69       0.007
  YS02001784           JUNCTION      1.06  1170.44     0  02:23      0.0305        4.72       0.011
  YS02001786           JUNCTION      0.06  1170.42     0  02:24     0.00162        4.73       0.015
  YS02001788           JUNCTION      0.07  1171.53     0  02:24     0.00204        4.73       0.007
  YS02001790           JUNCTION      0.15  1180.16     0  02:24     0.00446        4.73       0.041
  YS02001791           JUNCTION      0.00  1293.69     0  02:22           0        4.73      -0.046
  YS02001793           JUNCTION      0.00  1242.78     0  02:29           0        4.73       0.005
  YS02001882           JUNCTION      0.00    37.13     0  02:10           0      0.0133       4.881
  YS02001884           JUNCTION      0.00    34.19     0  02:09           0      0.0495       5.337
  YS02001887           JUNCTION   1069.94  1069.96     0  02:25        1.49        1.52       0.297
  YS02001890           JUNCTION      0.00  1069.86     0  02:25           0        1.48       0.355
  YS02001895           JUNCTION      0.00   518.01     0  02:29           0        1.28       0.138
  YS02001898           JUNCTION      0.00   518.07     0  02:28           0        1.28       0.012
  YS02001901           JUNCTION      0.00   518.42     0  02:28           0        1.28       0.267
  YS02001904           JUNCTION      0.00   518.23     0  02:29           0        1.28       0.225
  YS02001907           JUNCTION      0.00  2705.87     0  02:25           0        4.57       0.396
  YS02001910           JUNCTION      0.00  1893.67     0  02:25           0        3.24       0.218
  YS02001915           JUNCTION   1266.81  1893.31     0  02:25        2.07        3.26       0.048
  YS02001918           JUNCTION      0.00   628.28     0  02:25           0         1.2       0.008
  YS02001920           JUNCTION      2.87   627.12     0  02:25      0.0827        1.19       0.079
  YS02001923           JUNCTION      0.04   621.59     0  02:25     0.00109         1.1      -0.019
  YS02001926           JUNCTION      0.05   620.35     0  02:25      0.0015        1.09       0.014
  YS02001929           JUNCTION    617.94   617.94     0  02:26        1.09        1.09      -0.042
  YS02006553           JUNCTION      0.00   818.08     0  02:42           0        2.67       0.447
  YS02006556           JUNCTION      0.00   819.37     0  02:42           0        2.68       0.303
  YS02006558           JUNCTION   1459.71  1459.71     0  02:25        2.18        4.78       0.076
  YS02006561           JUNCTION      0.00  1169.23     0  02:23           0        4.69      -0.002
  YS02163301           JUNCTION      0.00   929.41     0  02:11           0        3.91       0.040
  YS02163601           JUNCTION      0.11  1332.24     0  02:12     0.00317        5.25       0.094
  YS02164001           JUNCTION      0.00  1332.34     0  02:12           0        5.25       0.044
  CC-1                 OUTFALL       0.00   683.00     0  00:00           0        4.36       0.000
  CC-2                 OUTFALL       0.00   683.00     0  00:00           0        3.55       0.000
  JK-1                 OUTFALL       0.00  1000.00     0  00:00           0        1.91       0.000
  JK-2                 OUTFALL       0.00  1000.00     0  00:00           0        1.33       0.000
  WSC                  OUTFALL       0.00   555.04     0  02:41           0        6.61       0.000
  CC-storage           STORAGE       0.00  3141.71     0  02:19           0        14.4      -0.209
  JK-storage           STORAGE       0.00  1278.42     0  02:20           0        4.88      -0.230
  
  
  **********************
  Node Surcharge Summary
  **********************
  
  Surcharging occurs when water rises above the top of the highest conduit.
  ---------------------------------------------------------------------
                                               Max. Height   Min. Depth
                                   Hours       Above Crown    Below Rim
  Node                 Type      Surcharged         Meters       Meters
  ---------------------------------------------------------------------
  WS02006109           JUNCTION        2.08          0.327        1.493
  WS02006110           JUNCTION        0.85          0.221        1.629
  WS02006112           JUNCTION        0.88          0.073        1.607
  WS02006228           JUNCTION        2.08          0.298        1.902
  WS02006229           JUNCTION        2.09          0.348        2.102
  WS02006230           JUNCTION        0.85          0.237        1.333
  WS02006231           JUNCTION        0.94          0.508        1.022
  WS02006232           JUNCTION        2.15          0.612        0.868
  WS02006234           JUNCTION        1.29          0.613        0.627
  WS02006235           JUNCTION        2.07          0.778        0.512
  WS02006238           JUNCTION        2.10          0.811        0.619
  WS02006239           JUNCTION        2.00          0.775        0.515
  WS02006240           JUNCTION        1.98          0.769        0.621
  WS02006242           JUNCTION        2.03          0.809        0.011
  WS02006243           JUNCTION        1.91          0.770        0.000
  WS02006245           JUNCTION        1.88          0.620        0.230
  WS02006247           JUNCTION        1.88          0.564        0.196
  WS02006248           JUNCTION        1.86          0.380        0.000
  WS02006249           JUNCTION        1.86          0.390        0.000
  WS02006251           JUNCTION        0.96          0.617        0.563
  WS02006252           JUNCTION        2.37          1.100        0.000
  WS02006256           JUNCTION        6.34          2.050        0.000
  YS02001580           JUNCTION        0.77          0.385        0.065
  YS02001583           JUNCTION        0.78          0.372        0.128
  YS02001586           JUNCTION        0.92          0.510        0.000
  YS02001590           JUNCTION        1.00          0.734        0.016
  YS02001593           JUNCTION        1.00          0.703        0.137
  YS02001596           JUNCTION        1.12          0.949        0.121
  YS02001600           JUNCTION        1.29          1.190        0.000
  YS02001601           JUNCTION        1.66          1.440        0.000
  YS02001602           JUNCTION        1.54          1.270        0.000
  YS02001605           JUNCTION        1.48          1.180        0.000
  YS02001607           JUNCTION        0.99          0.680        0.000
  YS02001610           JUNCTION        1.01          0.680        0.000
  YS02001613           JUNCTION        0.98          0.669        0.031
  YS02001616           JUNCTION        0.94          0.610        0.000
  YS02001619           JUNCTION        0.92          0.610        0.000
  YS02001622           JUNCTION        0.92          0.584        0.036
  YS02001625           JUNCTION        1.10          0.780        0.000
  YS02001629           JUNCTION        0.84          0.470        0.000
  YS02001633           JUNCTION        1.13          1.025        0.035
  YS02001641           JUNCTION        1.06          1.100        0.000
  YS02001644           JUNCTION        1.03          0.920        0.000
  YS02001647           JUNCTION        0.79          0.852        0.048
  YS02001649           JUNCTION        0.89          1.010        0.040
  YS02001652           JUNCTION        0.72          0.844        0.286
  YS02001655           JUNCTION        0.54          0.691        0.509
  YS02001658           JUNCTION        0.32          0.473        0.827
  YS02001661           JUNCTION        0.11          0.206        1.184
  YS02001748           JUNCTION        0.26          0.332        0.858
  YS02001751           JUNCTION        0.42          0.532        0.668
  YS02001754           JUNCTION        0.63          0.725        0.425
  YS02001757           JUNCTION        0.96          1.092        0.118
  YS02001759           JUNCTION        0.87          1.093        0.117
  YS02001762           JUNCTION        0.84          1.074        0.076
  YS02001765           JUNCTION        0.81          1.100        0.000
  YS02001767           JUNCTION        0.78          1.030        0.000
  YS02001770           JUNCTION        0.76          0.920        0.000
  YS02001774           JUNCTION        0.83          1.001        0.049
  YS02001779           JUNCTION        0.61          0.680        0.000
  YS02001783           JUNCTION        0.65          0.446        1.154
  YS02001784           JUNCTION        0.62          0.332        1.158
  YS02001786           JUNCTION        0.51          0.085        1.345
  YS02001882           JUNCTION        0.59          0.699        0.131
  YS02001884           JUNCTION        0.60          0.724        0.146
  YS02001887           JUNCTION        0.64          0.805        0.145
  YS02001890           JUNCTION        0.66          0.760        0.000
  YS02001895           JUNCTION        0.58          0.565        0.185
  YS02001898           JUNCTION        0.57          0.547        0.193
  YS02001901           JUNCTION        0.62          0.687        0.183
  YS02001904           JUNCTION        0.61          0.647        0.203
  YS02001907           JUNCTION        0.96          0.950        0.000
  YS02001910           JUNCTION        0.69          0.997        0.103
  YS02001915           JUNCTION        0.58          0.978        0.022
  YS02001918           JUNCTION        0.49          0.695        0.115
  YS02001920           JUNCTION        0.51          0.824        0.316
  YS02001923           JUNCTION        0.18          0.431        0.389
  YS02001926           JUNCTION        0.20          0.508        0.392
  YS02001929           JUNCTION        0.07          0.352        0.428
  YS02006553           JUNCTION        0.98          0.995        0.195
  YS02006556           JUNCTION        0.81          0.947        0.403
  YS02006558           JUNCTION        0.79          0.950        0.450
  YS02006561           JUNCTION        0.46          0.115        1.035
  YS02163301           JUNCTION        1.11          1.030        0.000
  YS02163601           JUNCTION        1.17          1.080        0.000
  YS02164001           JUNCTION        1.07          1.100        0.000
  
  
  *********************
  Node Flooding Summary
  *********************
  
  Flooding refers to all water that overflows a node, whether it ponds or not.
  --------------------------------------------------------------------------
                                                             Total   Maximum
                                 Maximum   Time of Max       Flood    Ponded
                        Hours       Rate    Occurrence      Volume     Depth
  Node                 Flooded       LPS   days hr:min    10^6 ltr    Meters
  --------------------------------------------------------------------------
  WS02006243              0.01     61.61      0  01:58       0.000     0.000
  WS02006248              0.01     22.41      0  02:45       0.000     0.000
  WS02006249              0.95    111.15      0  02:15       0.234     0.000
  WS02006252              0.01    245.63      0  00:00       0.000     0.000
  WS02006256              1.45    293.19      0  00:00       0.486     0.000
  YS02001586              0.61    700.19      0  02:26       0.619     0.000
  YS02001600              0.01      0.88      0  02:06       0.000     0.000
  YS02001601              0.84   1667.76      0  02:25       1.898     0.000
  YS02001602              0.68     63.04      0  02:42       0.141     0.000
  YS02001605              0.01      1.06      0  02:42       0.000     0.000
  YS02001607              0.01      0.43      0  02:42       0.000     0.000
  YS02001610              0.61    951.91      0  02:27       1.025     0.000
  YS02001616              0.02     17.45      0  02:43       0.000     0.000
  YS02001619              0.09    147.75      0  02:26       0.026     0.000
  YS02001625              0.58   1504.12      0  02:28       1.674     0.000
  YS02001629              0.19    225.69      0  02:25       0.060     0.000
  YS02001641              0.01      1.02      0  02:42       0.000     0.000
  YS02001644              0.28   1983.18      0  02:25       0.922     0.000
  YS02001765              0.01      0.82      0  02:43       0.000     0.000
  YS02001767              0.01      1.76      0  02:43       0.000     0.000
  YS02001770              0.06    235.01      0  02:25       0.029     0.000
  YS02001779              0.25    849.83      0  02:26       0.407     0.000
  YS02001890              0.23    553.65      0  02:25       0.195     0.000
  YS02001907              0.43   2705.18      0  02:25       1.941     0.000
  YS02163301              0.01      0.61      0  02:42       0.000     0.000
  YS02163601              0.01      0.85      0  02:42       0.000     0.000
  YS02164001              0.01      1.92      0  02:42       0.000     0.000
  
  
  **********************
  Storage Volume Summary
  **********************
  
  ------------------------------------------------------------------------------------------------
                         Average    Avg   Evap  Exfil     Maximum    Max    Time of Max    Maximum
                          Volume   Pcnt   Pcnt   Pcnt      Volume   Pcnt     Occurrence    Outflow
  Storage Unit           1000 m³   Full   Loss   Loss     1000 m³   Full    days hr:min        LPS
  ------------------------------------------------------------------------------------------------
  CC-storage               2.341   36.5    0.0    0.0       5.003   78.0       0  02:49    1783.53
  JK-storage               0.144   49.6    0.0    0.0       0.212   72.8       0  02:35    2300.00
  
  
  ***********************
  Outfall Loading Summary
  ***********************
  
  -----------------------------------------------------------
                         Flow       Avg       Max       Total
                         Freq      Flow      Flow      Volume
  Outfall Node           Pcnt       LPS       LPS    10^6 ltr
  -----------------------------------------------------------
  CC-1                  20.61    683.00    683.00       4.358
  CC-2                  17.60    683.00    683.00       3.552
  JK-1                   7.21   1000.00   1000.00       1.912
  JK-2                   4.20   1000.00   1000.00       1.328
  WSC                   99.97    281.00    555.04       6.609
  -----------------------------------------------------------
  System                29.92   3647.00   3921.04      17.759
  
  
  ********************
  Link Flow Summary
  ********************
  
  -----------------------------------------------------------------------------
                                 Maximum  Time of Max   Maximum    Max/    Max/
                                  |Flow|   Occurrence   |Veloc|    Full    Full
  Link                 Type          LPS  days hr:min     m/sec    Flow   Depth
  -----------------------------------------------------------------------------
  1                    CONDUIT    555.04     0  02:41      2.83    0.19    0.30
  WS02003060WS02003069 CONDUIT    553.00     0  02:45      1.64    0.22    0.34
  WS02003066WSF200     CONDUIT    536.45     0  02:44      2.85    0.09    0.22
  WS02003067WS02003066 CONDUIT    536.44     0  02:38      1.21    0.17    0.42
  WS02003069WS02003072 CONDUIT    553.26     0  02:40      1.37    0.27    0.39
  WS02003072WS02003073 CONDUIT    553.24     0  02:40      1.44    1.19    0.37
  WS02004401WS02004402 CONDUIT    537.57     0  03:00      0.98    0.65    0.86
  WS02004402WS02004403 CONDUIT    537.40     0  03:00      0.97    0.77    0.88
  WS02004403WS02004404 CONDUIT    536.94     0  03:01      0.92    0.39    0.93
  WS02004404WS02004405 CONDUIT    537.09     0  03:01      1.08    5.26    0.96
  WS02004405WS02004406 CONDUIT    537.39     0  03:01      0.99    1.06    0.96
  WS02004406WS02004407 CONDUIT    536.84     0  03:01      1.04    0.24    0.63
  WS02004407WS02004409 CONDUIT    536.68     0  02:36      1.46    0.19    0.48
  WS02004409WS02004410 CONDUIT    536.67     0  02:58      0.96    0.69    0.67
  WS02004410WS02004411 CONDUIT    536.57     0  02:59      0.93    0.73    0.69
  WS02004411WS02004412 CONDUIT    536.50     0  02:37      0.92    0.76    0.69
  WS02004412WS02004413 CONDUIT    536.47     0  02:59      0.82    0.36    0.78
  WS02004413WS02003067 CONDUIT    536.43     0  02:38      1.11    0.23    0.59
  WS02006109WS02006110 CONDUIT    552.75     0  03:06      1.10    1.06    1.00
  WS02006110WS02006113 CONDUIT    564.58     0  02:46      1.37    0.51    0.78
  WS02006111WS02006112 CONDUIT    542.41     0  02:49      1.81    0.26    0.67
  WS02006112WS02006115 CONDUIT    547.75     0  02:53      0.80    0.32    0.87
  WS02006113WS02006111 CONDUIT    560.18     0  03:08      2.46    0.67    0.46
  WS02006115WS02006116 CONDUIT    539.18     0  03:00      0.97    0.69    0.76
  WS02006116WS02004401 CONDUIT    538.25     0  02:47      0.98    0.74    0.84
  WS02006228WS02006109 CONDUIT    552.33     0  03:06      1.10    2.41    1.00
  WS02006229WS02006228 CONDUIT    551.63     0  03:06      1.14    1.83    1.00
  WS02006230WS02006229 CONDUIT    551.90     0  03:06      1.43   12.28    1.00
  WS02006231WS02006230 CONDUIT    579.46     0  03:15      1.57    8.79    1.00
  WS02006232WS02006231 CONDUIT    571.14     0  03:05      1.50    1.20    1.00
  WS02006234WS02006232 CONDUIT    570.17     0  03:05      1.49    1.15    1.00
  WS02006235WS02006234 CONDUIT    566.74     0  03:05      1.47    5.98    1.00
  WS02006238WS02006235 CONDUIT    423.74     0  03:13      1.45    0.95    1.00
  WS02006239WS02006238 CONDUIT    422.79     0  03:13      1.20    1.35    1.00
  WS02006240WS02006239 CONDUIT    422.31     0  03:13      1.27    1.33    1.00
  WS02006242WS02006240 CONDUIT    419.84     0  03:13      1.18    1.67    1.00
  WS02006243WS02006242 CONDUIT    420.40     0  03:13      1.45    0.90    1.00
  WS02006245WS02006243 CONDUIT    419.70     0  03:13      1.45    1.24    1.00
  WS02006247WS02006245 CONDUIT    419.85     0  03:16      1.43    3.33    1.00
  WS02006248WS02006247 CONDUIT    420.61     0  03:16      1.45    0.92    1.00
  WS02006249WS02006248 CONDUIT    420.77     0  03:16      1.38    2.30    1.00
  WS02006251WS02006249 CONDUIT    462.44     0  01:25      1.99    1.33    1.00
  WS02006252WS02006251 CONDUIT    407.48     0  01:59     24.61    1.50    1.00
  WS02006256WS02006235 CONDUIT    288.91     0  00:00      4.23    3.06    1.00
  WSF200WS02003060     CONDUIT    536.56     0  03:00      2.06    0.12    0.28
  YS02001580YS02001583 CONDUIT     59.30     0  02:05      0.47    0.23    1.00
  YS02001583YS02001586 CONDUIT     97.08     0  02:05      0.39    0.15    1.00
  YS02001586YS02001590 CONDUIT    318.85     0  02:43      1.24    0.56    1.00
  YS02001590YS02001593 CONDUIT    319.21     0  02:43      1.13    2.00    1.00
  YS02001593YS02001596 CONDUIT    318.07     0  02:42      1.75    0.50    1.00
  YS02001596YS02001600 CONDUIT    318.06     0  02:42      1.29    0.62    1.00
  YS02001600YS02001601 CONDUIT    318.15     0  02:43      1.13    0.55    1.00
  YS02001601YS02001602 CONDUIT    494.33     0  02:05      1.75    1.79    1.00
  YS02001602YS02001605 CONDUIT    494.02     0  02:05      1.75   10.45    1.00
  YS02001605YS02001607 CONDUIT    493.66     0  02:05      1.75    2.71    1.00
  YS02001607YS02001610 CONDUIT    492.38     0  02:05      0.63    0.47    1.00
  YS02001610YS02001613 CONDUIT    615.66     0  02:28      0.78    0.71    1.00
  YS02001613YS02001616 CONDUIT    616.17     0  02:27      0.78    0.53    1.00
  YS02001616YS02001619 CONDUIT    615.99     0  02:27      0.78    1.07    1.00
  YS02001619YS02001622 CONDUIT   1053.81     0  02:27      1.34    1.55    1.00
  YS02001622YS02001625 CONDUIT   1053.58     0  02:27      1.34    0.56    1.00
  YS02001625YS02001629 CONDUIT    929.23     0  02:11      1.18    0.44    1.00
  YS02001629YS02163301 CONDUIT    929.41     0  02:11      1.18    1.14    1.00
  YS02001633YS02163601 CONDUIT   1332.13     0  02:12      1.70    1.40    1.00
  YS02001641YS02001644 CONDUIT   1332.32     0  02:12      1.70    4.31    1.00
  YS02001644YS02001647 CONDUIT   1697.16     0  02:12      2.18    1.00    1.00
  YS02001647YS02001649 CONDUIT   1712.76     0  02:12      2.29    0.90    1.00
  YS02001649YS02001757 CONDUIT   1946.11     0  02:12      2.48    1.18    1.00
  YS02001652YS02001649 CONDUIT   1169.50     0  02:25      1.49    0.58    1.00
  YS02001655YS02001652 CONDUIT   1169.37     0  02:25      1.49    0.57    1.00
  YS02001658YS02001655 CONDUIT   1168.55     0  02:25      1.80    0.50    1.00
  YS02001661YS02001658 CONDUIT   1168.93     0  02:25      2.21    0.46    1.00
  YS02001664YS02001661 CONDUIT   1168.49     0  02:25      2.17    0.37    0.89
  YS02001745YS02001748 CONDUIT    724.58     0  02:25      2.05    0.28    0.97
  YS02001748YS02001751 CONDUIT    725.09     0  02:25      1.61    0.37    1.00
  YS02001751YS02001754 CONDUIT    725.56     0  02:25      1.35    0.35    1.00
  YS02001754YS02001757 CONDUIT    726.08     0  02:25      0.92    0.29    1.00
  YS02001757CaochengTiaoxuchi CONDUIT   3141.71     0  02:19      4.00    1.36    1.00
  YS02001759YS02001757 CONDUIT   1355.89     0  02:25      1.73    0.96    1.00
  YS02001762YS02001759 CONDUIT    724.48     0  02:18      0.92    0.83    1.00
  YS02001765YS02001762 CONDUIT    722.80     0  02:19      0.92    0.68    1.00
  YS02001767YS02001765 CONDUIT    722.92     0  02:19      0.92    0.91    1.00
  YS02001770YS02001767 CONDUIT    723.05     0  02:19      0.92    2.86    1.00
  YS02001774YS02001770 CONDUIT    850.17     0  02:26      1.08    0.54    1.00
  YS02001779YS02001774 CONDUIT    850.01     0  02:26      1.08    0.43    1.00
  YS02001783YS02001784 CONDUIT   1169.38     0  02:23      2.33    1.61    1.00
  YS02001784YS02001785 CONDUIT   1170.36     0  02:24      2.33    2.72    1.00
  YS02001786YS02001788 CONDUIT   1171.46     0  02:24      2.49    2.26    0.89
  YS02001788YS02001790 CONDUIT   1180.00     0  02:24      2.72    0.87    0.84
  YS02001790YS02001791 CONDUIT   1293.69     0  02:22      3.43    1.41    0.71
  YS02001791YS02001793 CONDUIT   1242.78     0  02:29      6.79    0.53    0.43
  YS02001793JiankangQianchi CONDUIT   1278.42     0  02:20      2.56    0.10    0.64
  YS02001882YS02001884 CONDUIT     37.13     0  02:10      0.15    0.04    1.00
  YS02001884YS02001887 CONDUIT     35.30     0  02:53      0.11    0.05    1.00
  YS02001887YS02001890 CONDUIT   1069.86     0  02:25      1.36    1.83    1.00
  YS02001890YS02001895 CONDUIT    518.01     0  02:29      0.66    0.24    1.00
  YS02001895YS02001898 CONDUIT    518.07     0  02:28      0.66    0.90    1.00
  YS02001898YS02001901 CONDUIT    518.42     0  02:28      0.66    0.33    1.00
  YS02001901YS02001904 CONDUIT    518.23     0  02:29      0.66    0.80    1.00
  YS02001904YS02001907 CONDUIT    518.37     0  02:29      0.66    0.18    1.00
  YS02001907YS02006553 CONDUIT    818.08     0  02:42      0.91    0.96    1.00
  YS02001910YS02001907 CONDUIT   1894.27     0  02:25      2.41    1.07    1.00
  YS02001915YS02001910 CONDUIT   1893.67     0  02:25      2.41    0.94    1.00
  YS02001918YS02001915 CONDUIT    629.40     0  02:25      0.80    0.35    1.00
  YS02001920YS02001918 CONDUIT    628.28     0  02:25      0.80    0.61    1.00
  YS02001923YS02001920 CONDUIT    624.25     0  02:25      0.79    0.28    1.00
  YS02001926YS02001923 CONDUIT    621.55     0  02:25      0.94    0.89    1.00
  YS02001929YS02001926 CONDUIT    620.29     0  02:25      1.06    0.29    1.00
  YS02006553YS02006556 CONDUIT    819.37     0  02:42      1.04    0.70    1.00
  YS02006556YS02006558 CONDUIT    820.16     0  02:42      1.04    0.65    1.00
  YS02006558YS02006561 CONDUIT   1169.23     0  02:23      4.14    2.58    1.00
  YS02006561YS02001783 CONDUIT   1169.37     0  02:24      2.33    0.61    1.00
  YS02163301YS02001633 CONDUIT    929.53     0  02:11      1.18    0.87    1.00
  YS02163601YS02164001 CONDUIT   1332.34     0  02:12      1.70    1.18    1.00
  YS02164001YS02001641 CONDUIT   1332.49     0  02:12      1.70    1.82    1.00
  CC-R1                PUMP       683.00     0  00:00              1.00
  CC-R2                PUMP       683.00     0  00:00              1.00
  CC-S1                PUMP       200.00     0  00:00              1.00
  CC-S2                PUMP       200.00     0  00:00              1.00
  JK-R1                PUMP      1000.00     0  00:00              1.00
  JK-R2                PUMP      1000.00     0  00:00              1.00
  JK-S                 PUMP       300.00     0  00:00              1.00
  
  
  ***************************
  Flow Classification Summary
  ***************************
  
  -------------------------------------------------------------------------------------
                      Adjusted    ---------- Fraction of Time in Flow Class ---------- 
                       /Actual         Up    Down  Sub   Sup   Up    Down  Norm  Inlet 
  Conduit               Length    Dry  Dry   Dry   Crit  Crit  Crit  Crit  Ltd   Ctrl  
  -------------------------------------------------------------------------------------
  1                       1.00   0.00  0.00  0.00  0.00  1.00  0.00  0.00  0.39  0.00
  WS02003060WS02003069    1.00   0.00  0.00  0.00  0.98  0.02  0.00  0.00  0.65  0.00
  WS02003066WSF200        1.00   0.12  0.00  0.00  0.00  0.87  0.00  0.00  0.74  0.00
  WS02003067WS02003066    1.00   0.10  0.02  0.00  0.88  0.00  0.00  0.00  0.00  0.00
  WS02003069WS02003072    1.00   0.00  0.00  0.00  0.99  0.01  0.00  0.00  0.71  0.00
  WS02003072WS02003073    1.00   0.00  0.00  0.00  0.00  0.00  0.00  1.00  0.00  0.00
  WS02004401WS02004402    1.00   0.02  0.00  0.00  0.98  0.00  0.00  0.00  0.00  0.00
  WS02004402WS02004403    1.00   0.02  0.00  0.00  0.97  0.00  0.00  0.00  0.00  0.00
  WS02004403WS02004404    1.00   0.00  0.03  0.00  0.97  0.00  0.00  0.00  0.00  0.00
  WS02004404WS02004405    1.00   0.00  0.00  0.00  1.00  0.00  0.00  0.00  0.00  0.00
  WS02004405WS02004406    1.00   0.00  0.00  0.00  1.00  0.00  0.00  0.00  0.00  0.00
  WS02004406WS02004407    1.00   0.00  0.05  0.00  0.95  0.00  0.00  0.00  0.00  0.00
  WS02004407WS02004409    1.00   0.05  0.00  0.00  0.94  0.01  0.00  0.00  0.94  0.00
  WS02004409WS02004410    1.00   0.05  0.00  0.00  0.95  0.00  0.00  0.00  0.03  0.00
  WS02004410WS02004411    1.00   0.05  0.00  0.00  0.95  0.00  0.00  0.00  0.01  0.00
  WS02004411WS02004412    1.00   0.05  0.00  0.00  0.95  0.00  0.00  0.00  0.00  0.00
  WS02004412WS02004413    1.00   0.05  0.00  0.00  0.94  0.00  0.00  0.00  0.01  0.00
  WS02004413WS02003067    1.00   0.06  0.04  0.00  0.00  0.00  0.90  0.00  0.00  0.00
  WS02006109WS02006110    1.00   0.00  0.01  0.00  0.98  0.00  0.01  0.00  0.00  0.00
  WS02006110WS02006113    1.00   0.01  0.01  0.00  0.98  0.00  0.00  0.00  0.00  0.00
  WS02006111WS02006112    1.00   0.02  0.00  0.00  0.98  0.00  0.00  0.00  0.98  0.00
  WS02006112WS02006115    1.00   0.02  0.00  0.00  0.97  0.00  0.00  0.00  0.00  0.00
  WS02006113WS02006111    1.00   0.02  0.00  0.00  0.00  0.98  0.00  0.00  0.17  0.00
  WS02006115WS02006116    1.00   0.02  0.00  0.00  0.97  0.00  0.00  0.01  0.00  0.00
  WS02006116WS02004401    1.00   0.02  0.00  0.00  0.98  0.00  0.00  0.00  0.00  0.00
  WS02006228WS02006109    1.00   0.00  0.00  0.00  1.00  0.00  0.00  0.00  0.00  0.00
  WS02006229WS02006228    1.00   0.00  0.00  0.00  0.99  0.00  0.00  0.01  0.00  0.00
  WS02006230WS02006229    1.00   0.00  0.00  0.00  0.99  0.00  0.00  0.01  0.00  0.00
  WS02006231WS02006230    1.00   0.00  0.00  0.00  0.29  0.00  0.70  0.00  0.00  0.00
  WS02006232WS02006231    1.00   0.00  0.00  0.00  0.99  0.00  0.01  0.00  0.00  0.00
  WS02006234WS02006232    1.00   0.00  0.00  0.00  1.00  0.00  0.00  0.00  0.12  0.00
  WS02006235WS02006234    1.00   0.00  0.00  0.00  0.83  0.00  0.17  0.00  0.00  0.00
  WS02006238WS02006235    1.00   0.00  0.00  0.00  1.00  0.00  0.00  0.00  0.00  0.00
  WS02006239WS02006238    1.00   0.00  0.00  0.00  1.00  0.00  0.00  0.00  0.21  0.00
  WS02006240WS02006239    1.00   0.00  0.00  0.00  0.69  0.00  0.00  0.31  0.01  0.00
  WS02006242WS02006240    1.00   0.00  0.00  0.00  0.99  0.00  0.01  0.00  0.00  0.00
  WS02006243WS02006242    1.00   0.00  0.00  0.00  0.99  0.00  0.00  0.01  0.37  0.00
  WS02006245WS02006243    1.00   0.00  0.00  0.00  0.79  0.00  0.00  0.20  0.00  0.00
  WS02006247WS02006245    1.00   0.00  0.00  0.00  0.99  0.00  0.00  0.01  0.00  0.00
  WS02006248WS02006247    1.00   0.00  0.00  0.00  0.99  0.00  0.00  0.01  0.19  0.00
  WS02006249WS02006248    1.00   0.00  0.00  0.00  0.63  0.00  0.36  0.00  0.00  0.00
  WS02006251WS02006249    1.00   0.00  0.00  0.00  0.99  0.00  0.00  0.00  0.37  0.00
  WS02006252WS02006251    1.00   0.01  0.21  0.00  0.12  0.00  0.66  0.00  0.00  0.00
  WS02006256WS02006235    1.00   0.00  0.00  0.00  1.00  0.00  0.00  0.00  0.00  0.00
  WSF200WS02003060        1.00   0.00  0.12  0.00  0.22  0.65  0.00  0.00  0.31  0.00
  YS02001580YS02001583    1.00   0.26  0.53  0.00  0.22  0.00  0.00  0.00  0.62  0.00
  YS02001583YS02001586    1.00   0.40  0.33  0.00  0.27  0.00  0.00  0.00  0.62  0.00
  YS02001586YS02001590    1.00   0.13  0.00  0.00  0.47  0.04  0.00  0.37  0.38  0.00
  YS02001590YS02001593    1.00   0.13  0.01  0.00  0.14  0.00  0.73  0.00  0.00  0.00
  YS02001593YS02001596    1.00   0.13  0.00  0.00  0.16  0.01  0.00  0.70  0.02  0.00
  YS02001596YS02001600    1.00   0.13  0.00  0.00  0.23  0.01  0.00  0.63  0.05  0.00
  YS02001600YS02001601    1.00   0.13  0.01  0.00  0.86  0.00  0.00  0.00  0.58  0.00
  YS02001601YS02001602    1.00   0.13  0.01  0.00  0.87  0.00  0.00  0.00  0.00  0.00
  YS02001602YS02001605    1.00   0.13  0.00  0.00  0.87  0.00  0.00  0.00  0.00  0.00
  YS02001605YS02001607    1.00   0.13  0.00  0.00  0.87  0.00  0.00  0.00  0.00  0.00
  YS02001607YS02001610    1.00   0.13  0.01  0.00  0.86  0.00  0.00  0.00  0.01  0.00
  YS02001610YS02001613    1.00   0.13  0.00  0.00  0.87  0.00  0.00  0.00  0.00  0.00
  YS02001613YS02001616    1.00   0.13  0.00  0.00  0.87  0.00  0.00  0.00  0.00  0.00
  YS02001616YS02001619    1.00   0.13  0.00  0.00  0.87  0.00  0.00  0.00  0.00  0.00
  YS02001619YS02001622    1.00   0.13  0.00  0.00  0.87  0.00  0.00  0.00  0.27  0.00
  YS02001622YS02001625    1.00   0.13  0.00  0.00  0.87  0.00  0.00  0.00  0.03  0.00
  YS02001625YS02001629    1.00   0.13  0.04  0.00  0.19  0.00  0.64  0.00  0.00  0.00
  YS02001629YS02163301    1.00   0.15  0.01  0.00  0.84  0.00  0.00  0.00  0.00  0.00
  YS02001633YS02163601    1.00   0.00  0.01  0.00  0.99  0.00  0.00  0.00  0.14  0.00
  YS02001641YS02001644    1.00   0.00  0.01  0.00  0.99  0.00  0.00  0.00  0.00  0.00
  YS02001644YS02001647    1.00   0.00  0.16  0.00  0.84  0.00  0.00  0.00  0.00  0.00
  YS02001647YS02001649    1.00   0.00  0.16  0.00  0.55  0.28  0.00  0.00  0.53  0.00
  YS02001649YS02001757    1.00   0.00  0.00  0.00  0.85  0.15  0.00  0.00  0.40  0.00
  YS02001652YS02001649    1.00   0.00  0.00  0.00  0.97  0.03  0.00  0.00  0.71  0.00
  YS02001655YS02001652    1.00   0.00  0.00  0.00  0.22  0.01  0.00  0.76  0.06  0.00
  YS02001658YS02001655    1.00   0.00  0.14  0.00  0.68  0.19  0.00  0.00  0.67  0.00
  YS02001661YS02001658    1.00   0.14  0.00  0.00  0.51  0.35  0.00  0.00  0.67  0.00
  YS02001664YS02001661    1.00   0.13  0.00  0.00  0.77  0.11  0.00  0.00  0.85  0.00
  YS02001745YS02001748    1.00   0.00  0.00  0.00  0.12  0.00  0.00  0.88  0.04  0.00
  YS02001748YS02001751    1.00   0.00  0.00  0.00  0.83  0.17  0.00  0.00  0.72  0.00
  YS02001751YS02001754    1.00   0.00  0.00  0.00  0.19  0.01  0.00  0.80  0.04  0.00
  YS02001754YS02001757    1.00   0.00  0.00  0.00  1.00  0.00  0.00  0.00  0.78  0.00
  YS02001757CaochengTiaoxuchi    1.00   0.00  0.00  0.00  0.95  0.05  0.00  0.00  0.58  0.00
  YS02001759YS02001757    1.00   0.00  0.00  0.00  0.99  0.01  0.00  0.00  0.49  0.00
  YS02001762YS02001759    1.00   0.00  0.00  0.00  1.00  0.00  0.00  0.00  0.05  0.00
  YS02001765YS02001762    1.00   0.00  0.00  0.00  1.00  0.00  0.00  0.00  0.63  0.00
  YS02001767YS02001765    1.00   0.00  0.00  0.00  1.00  0.00  0.00  0.00  0.01  0.00
  YS02001770YS02001767    1.00   0.00  0.00  0.00  1.00  0.00  0.00  0.00  0.00  0.00
  YS02001774YS02001770    1.00   0.00  0.13  0.00  0.71  0.00  0.16  0.00  0.02  0.00
  YS02001779YS02001774    1.00   0.00  0.00  0.00  1.00  0.00  0.00  0.00  0.72  0.00
  YS02001783YS02001784    1.00   0.00  0.17  0.00  0.83  0.00  0.00  0.00  0.54  0.00
  YS02001784YS02001785    1.00   0.00  0.00  0.00  1.00  0.00  0.00  0.00  0.16  0.00
  YS02001786YS02001788    1.00   0.00  0.00  0.00  0.79  0.21  0.00  0.00  0.00  0.00
  YS02001788YS02001790    1.00   0.00  0.00  0.00  0.21  0.79  0.00  0.00  0.78  0.00
  YS02001790YS02001791    1.00   0.00  0.00  0.00  0.01  0.99  0.00  0.00  0.16  0.00
  YS02001791YS02001793    1.00   0.00  0.00  0.00  0.00  1.00  0.00  0.00  0.01  0.00
  YS02001793JiankangQianchi    1.00   0.00  0.00  0.00  0.96  0.04  0.00  0.00  0.97  0.00
  YS02001882YS02001884    1.00   0.15  0.01  0.00  0.85  0.00  0.00  0.00  0.00  0.00
  YS02001884YS02001887    1.00   0.06  0.05  0.00  0.89  0.00  0.00  0.00  0.00  0.00
  YS02001887YS02001890    1.00   0.00  0.00  0.00  0.97  0.00  0.03  0.00  0.00  0.00
  YS02001890YS02001895    1.00   0.00  0.15  0.00  0.84  0.00  0.00  0.00  0.00  0.00
  YS02001895YS02001898    1.00   0.16  0.00  0.00  0.83  0.00  0.02  0.00  0.00  0.00
  YS02001898YS02001901    1.00   0.16  0.00  0.00  0.84  0.00  0.00  0.00  0.01  0.00
  YS02001901YS02001904    1.00   0.16  0.00  0.00  0.84  0.00  0.00  0.00  0.00  0.00
  YS02001904YS02001907    1.00   0.00  0.16  0.00  0.84  0.00  0.00  0.00  0.00  0.00
  YS02001907YS02006553    1.00   0.00  0.02  0.00  0.98  0.00  0.00  0.00  0.00  0.00
  YS02001910YS02001907    1.00   0.00  0.00  0.00  0.97  0.00  0.00  0.03  0.12  0.00
  YS02001915YS02001910    1.00   0.00  0.00  0.00  0.97  0.03  0.00  0.00  0.14  0.00
  YS02001918YS02001915    1.00   0.00  0.01  0.00  0.98  0.02  0.00  0.00  0.72  0.00
  YS02001920YS02001918    1.00   0.00  0.01  0.00  0.99  0.00  0.00  0.00  0.00  0.00
  YS02001923YS02001920    1.00   0.00  0.00  0.00  1.00  0.00  0.00  0.00  0.91  0.00
  YS02001926YS02001923    1.00   0.00  0.07  0.00  0.07  0.00  0.85  0.00  0.00  0.00
  YS02001929YS02001926    1.00   0.00  0.13  0.00  0.87  0.00  0.00  0.00  0.81  0.00
  YS02006553YS02006556    1.00   0.01  0.00  0.00  0.99  0.00  0.00  0.00  0.03  0.00
  YS02006556YS02006558    1.00   0.00  0.00  0.00  1.00  0.00  0.00  0.00  0.00  0.00
  YS02006558YS02006561    1.00   0.17  0.00  0.00  0.07  0.76  0.00  0.00  0.18  0.00
  YS02006561YS02001783    1.00   0.17  0.00  0.00  0.11  0.72  0.00  0.00  0.67  0.00
  YS02163301YS02001633    1.00   0.00  0.15  0.00  0.85  0.00  0.00  0.00  0.00  0.00
  YS02163601YS02164001    1.00   0.00  0.08  0.00  0.92  0.00  0.00  0.00  0.00  0.00
  YS02164001YS02001641    1.00   0.01  0.07  0.00  0.92  0.00  0.00  0.00  0.05  0.00
  
  
  *************************
  Conduit Surcharge Summary
  *************************
  
  ----------------------------------------------------------------------------
                                                           Hours        Hours 
                         --------- Hours Full --------   Above Full   Capacity
  Conduit                Both Ends  Upstream  Dnstream   Normal Flow   Limited
  ----------------------------------------------------------------------------
  WS02003072WS02003073        0.01      0.01      0.01      1.19         0.01
  WS02004404WS02004405        0.01      0.01      0.01      4.88         0.01
  WS02004405WS02004406        0.01      0.01      0.01      0.82         0.01
  WS02006109WS02006110        0.85      0.85      2.15      0.91         0.01
  WS02006110WS02006113        0.01      0.01      2.11      0.01         0.01
  WS02006111WS02006112        0.01      0.01      2.56      0.01         0.01
  WS02006112WS02006115        0.01      0.01      0.88      0.01         0.01
  WS02006228WS02006109        2.08      2.15      2.08      3.14         2.08
  WS02006229WS02006228        2.08      2.09      2.08      2.56         2.06
  WS02006230WS02006229        2.22      2.46      2.22      5.16         2.22
  WS02006231WS02006230        0.85      0.85      0.97      5.01         0.01
  WS02006232WS02006231        0.94      0.94      2.15      0.99         0.01
  WS02006234WS02006232        2.04      2.04      2.15      0.96         0.96
  WS02006235WS02006234        1.29      1.29      2.07      4.90         0.01
  WS02006238WS02006235        2.08      2.08      2.15      0.01         0.01
  WS02006239WS02006238        2.09      2.10      2.10      2.13         1.71
  WS02006240WS02006239        1.97      1.98      2.00      2.13         1.58
  WS02006242WS02006240        1.98      1.98      2.15      2.39         0.01
  WS02006243WS02006242        1.92      1.92      2.03      0.01         0.03
  WS02006245WS02006243        1.89      1.89      1.91      1.33         1.17
  WS02006247WS02006245        1.88      1.89      1.88      4.62         1.87
  WS02006248WS02006247        1.86      1.86      1.88      0.01         0.03
  WS02006249WS02006248        1.86      1.86      1.86      4.58         0.01
  WS02006251WS02006249        1.85      1.85      1.86      2.30         1.80
  WS02006252WS02006251        2.36      2.36      2.37      2.37         0.01
  WS02006256WS02006235        4.93      4.96      6.32      1.46         0.01
  YS02001580YS02001583        0.77      0.77      0.84      0.01         0.01
  YS02001583YS02001586        0.78      0.78      0.92      0.01         0.01
  YS02001586YS02001590        0.93      0.93      1.00      0.01         0.01
  YS02001590YS02001593        1.00      1.00      1.02      0.99         0.01
  YS02001593YS02001596        1.01      1.01      1.12      0.01         0.01
  YS02001596YS02001600        1.18      1.18      1.29      0.01         0.01
  YS02001600YS02001601        1.35      1.35      1.66      0.01         0.01
  YS02001601YS02001602        1.54      1.54      1.70      1.30         0.01
  YS02001602YS02001605        1.48      1.48      1.54      2.52         0.01
  YS02001605YS02001607        1.43      1.48      1.44      1.59         1.42
  YS02001607YS02001610        0.99      0.99      1.01      0.01         0.01
  YS02001610YS02001613        0.98      0.98      1.01      0.01         0.01
  YS02001613YS02001616        0.94      0.94      0.98      0.01         0.01
  YS02001616YS02001619        0.92      0.92      0.94      0.07         0.09
  YS02001619YS02001622        0.92      0.92      0.92      1.00         0.87
  YS02001622YS02001625        0.92      0.92      1.10      0.01         0.01
  YS02001625YS02001629        0.84      0.84      1.10      0.01         0.01
  YS02001629YS02163301        1.10      1.10      1.11      0.14         0.23
  YS02001633YS02163601        1.13      1.13      1.17      0.38         0.37
  YS02001641YS02001644        1.03      1.06      1.03      1.74         1.01
  YS02001644YS02001647        0.79      0.79      1.03      0.01         0.01
  YS02001647YS02001649        0.79      0.79      0.90      0.01         0.01
  YS02001649YS02001757        0.89      0.90      0.96      0.17         0.09
  YS02001652YS02001649        0.74      0.74      0.90      0.01         0.01
  YS02001655YS02001652        0.54      0.54      0.72      0.01         0.01
  YS02001658YS02001655        0.32      0.32      0.54      0.01         0.01
  YS02001661YS02001658        0.11      0.11      0.32      0.01         0.01
  YS02001664YS02001661        0.01      0.01      0.15      0.01         0.01
  YS02001745YS02001748        0.01      0.01      0.26      0.01         0.01
  YS02001748YS02001751        0.30      0.30      0.42      0.01         0.01
  YS02001751YS02001754        0.42      0.42      0.63      0.01         0.01
  YS02001754YS02001757        0.67      0.67      0.96      0.01         0.01
  YS02001757CaochengTiaoxuchi        0.93      0.96      1.84      0.48         0.39
  YS02001759YS02001757        0.87      0.87      0.96      0.01         0.01
  YS02001762YS02001759        0.84      0.84      0.87      0.01         0.01
  YS02001765YS02001762        0.81      0.81      0.84      0.01         0.01
  YS02001767YS02001765        0.78      0.78      0.81      0.01         0.02
  YS02001770YS02001767        0.78      0.78      0.78      0.67         0.52
  YS02001774YS02001770        0.76      0.76      0.83      0.01         0.01
  YS02001779YS02001774        0.61      0.61      0.83      0.01         0.01
  YS02001783YS02001784        0.62      0.65      0.62      0.86         0.62
  YS02001784YS02001785        0.51      0.62      0.51      1.17         0.51
  YS02001786YS02001788        0.01      0.51      0.01      1.00         0.01
  YS02001790YS02001791        0.01      0.01      0.01      0.61         0.01
  YS02001793JiankangQianchi        0.01      0.01      7.39      0.01         0.01
  YS02001882YS02001884        0.59      0.59      0.60      0.01         0.01
  YS02001884YS02001887        0.63      0.63      0.64      0.01         0.01
  YS02001887YS02001890        0.66      0.66      0.67      0.17         0.01
  YS02001890YS02001895        0.58      0.58      0.69      0.01         0.01
  YS02001895YS02001898        0.57      0.57      0.58      0.01         0.01
  YS02001898YS02001901        0.58      0.58      0.62      0.01         0.01
  YS02001901YS02001904        0.61      0.61      0.62      0.01         0.01
  YS02001904YS02001907        0.61      0.61      0.99      0.01         0.01
  YS02001907YS02006553        1.18      1.18      1.26      0.01         0.01
  YS02001910YS02001907        0.69      0.69      0.96      0.05         0.05
  YS02001915YS02001910        0.58      0.58      0.69      0.01         0.01
  YS02001918YS02001915        0.49      0.49      0.58      0.01         0.01
  YS02001920YS02001918        0.49      0.49      0.51      0.01         0.01
  YS02001923YS02001920        0.44      0.44      0.51      0.01         0.01
  YS02001926YS02001923        0.18      0.18      0.20      0.01         0.01
  YS02001929YS02001926        0.07      0.07      0.20      0.01         0.01
  YS02006553YS02006556        0.81      0.81      0.98      0.01         0.01
  YS02006556YS02006558        0.90      0.90      1.00      0.01         0.01
  YS02006558YS02006561        0.53      0.79      0.53      1.11         0.53
  YS02006561YS02001783        0.46      0.46      0.65      0.01         0.01
  YS02163301YS02001633        1.11      1.11      1.15      0.01         0.01
  YS02163601YS02164001        1.07      1.07      1.17      0.15         0.01
  YS02164001YS02001641        1.06      1.07      1.06      0.78         0.70
  
  
  ***************
  Pumping Summary
  ***************
  
  ---------------------------------------------------------------------------------------------------------
                                                  Min       Avg       Max     Total     Power    % Time Off
                        Percent   Number of      Flow      Flow      Flow    Volume     Usage    Pump Curve
  Pump                 Utilized   Start-Ups       LPS       LPS       LPS  10^6 ltr     Kw-hr    Low   High
  ---------------------------------------------------------------------------------------------------------
  CC-R1                   22.15           5      0.00    683.00    683.00     4.356     81.16    0.0   25.9
  CC-R2                   18.06           3      0.00    683.00    683.00     3.552     66.50    0.0   27.7
  CC-S1                   55.15          11      0.00    200.00    200.00     3.176     19.06    0.0    0.0
  CC-S2                   32.74          13      0.00    200.00    200.00     1.886     10.99    0.0    0.0
  JK-R1                    6.64          12      0.00   1000.00   1000.00     1.913     18.80    0.0    0.0
  JK-R2                    4.61          12      0.00   1000.00   1000.00     1.327     12.78    0.0    0.0
  JK-S                    18.13          13      0.00    300.00    300.00     1.566     25.12    0.0    0.0
  

  Analysis begun on:  Wed Jan 15 10:22:01 2025
  Analysis ended on:  Wed Jan 15 10:22:03 2025
  Total elapsed time: 00:00:02