
  EPA STORM WATER MANAGEMENT MODEL - VERSION 5.2 (Build 5.2.4)
  PYSWMM TOOLKIT API - VERSION v1.0 (2023-11-27)
  ------------------------------------------------------------

  WARNING 04: minimum elevation drop used for Conduit WS02004404WS02004405
  WARNING 03: negative offset ignored for Link YS02001904YS02001907
  
  ****************
  Analysis Options
  ****************
  Flow Units ............... LPS
  Process Models:
    Rainfall/Runoff ........ YES
    RDII ................... NO
    Snowmelt ............... NO
    Groundwater ............ NO
    Flow Routing ........... YES
    Ponding Allowed ........ NO
    Water Quality .......... NO
  Infiltration Method ...... HORTON
  Flow Routing Method ...... DYNWAVE
  Surcharge Method ......... EXTRAN
  Starting Date ............ 08/28/2015 08:00:00
  Ending Date .............. 08/28/2015 16:00:00
  Antecedent Dry Days ...... 8.0
  Report Time Step ......... 00:01:00
  Wet Time Step ............ 00:01:00
  Dry Time Step ............ 00:01:00
  Routing Time Step ........ 30.00 sec
  Variable Time Step ....... YES
  Maximum Trials ........... 8
  Number of Threads ........ 4
  Head Tolerance ........... 0.001500 m
  
  
  **************************        Volume         Depth
  Runoff Quantity Continuity     hectare-m            mm
  **************************     ---------       -------
  Total Precipitation ......         3.551       107.049
  Evaporation Loss .........         0.000         0.000
  Infiltration Loss ........         0.104         3.133
  Surface Runoff ...........         3.415       102.949
  Final Storage ............         0.033         0.996
  Continuity Error (%) .....        -0.027
  
  
  **************************        Volume        Volume
  Flow Routing Continuity        hectare-m      10^6 ltr
  **************************     ---------     ---------
  Dry Weather Inflow .......         0.025         0.251
  Wet Weather Inflow .......         3.417        34.166
  Groundwater Inflow .......         0.000         0.000
  RDII Inflow ..............         0.000         0.000
  External Inflow ..........         0.083         0.834
  External Outflow .........         2.077        20.768
  Flooding Loss ............         1.520        15.201
  Evaporation Loss .........         0.000         0.000
  Exfiltration Loss ........         0.000         0.000
  Initial Stored Volume ....         0.243         2.431
  Final Stored Volume ......         0.181         1.807
  Continuity Error (%) .....        -0.252
  
  
  *************************
  Highest Continuity Errors
  *************************
  Node YS02001884 (5.02%)
  Node YS02001583 (-4.26%)
  Node WS02006256 (-1.61%)
  
  
  ***************************
  Time-Step Critical Elements
  ***************************
  Link WS02006252WS02006251 (26.29%)
  Link WS02004404WS02004405 (23.80%)
  Link WS02006238WS02006235 (10.60%)
  Link YS02001791YS02001793 (10.41%)
  Link WS02006235WS02006234 (7.39%)
  
  
  ********************************
  Highest Flow Instability Indexes
  ********************************
  Link WS02006113WS02006111 (40)
  Link WS02006111WS02006112 (21)
  Link WS02006252WS02006251 (21)
  Link YS02001602YS02001605 (21)
  Link YS02001605YS02001607 (20)
  
  
  *********************************
  Most Frequent Nonconverging Nodes
  *********************************
  Node CC-1 (22.28%)
  Node CC-2 (22.28%)
  Node JK-1 (22.28%)
  Node JK-2 (22.28%)
  Node WSC (22.28%)
  
  
  *************************
  Routing Time Step Summary
  *************************
  Minimum Time Step           :     0.02 sec
  Average Time Step           :     2.76 sec
  Maximum Time Step           :     6.43 sec
  % of Time in Steady State   :     0.00
  Average Iterations per Step :     3.83
  % of Steps Not Converging   :    22.28
  Time Step Frequencies       :
     30.000 - 13.228 sec      :     0.00 %
     13.228 -  5.833 sec      :    20.59 %
      5.833 -  2.572 sec      :    21.37 %
      2.572 -  1.134 sec      :    25.11 %
      1.134 -  0.500 sec      :    32.92 %
  
  
  ***************************
  Subcatchment Runoff Summary
  ***************************
  
  ------------------------------------------------------------------------------------------------------------------------------
                            Total      Total      Total      Total     Imperv       Perv      Total       Total     Peak  Runoff
                           Precip      Runon       Evap      Infil     Runoff     Runoff     Runoff      Runoff   Runoff   Coeff
  Subcatchment                 mm         mm         mm         mm         mm         mm         mm    10^6 ltr      LPS
  ------------------------------------------------------------------------------------------------------------------------------
  sub60                    107.05       0.00       0.00       1.88      93.02      10.97     103.98        1.37   974.82   0.971
  sub61                    107.05       0.00       0.00       2.73      87.74      15.48     103.21        1.89  1354.25   0.964
  sub62                    107.05       0.00       0.00       1.25      97.21       7.31     104.53        2.86  1904.89   0.976
  sub63                    107.05       0.00       0.00       5.02      75.05      26.03     101.08        2.29  1533.11   0.944
  sub64                    107.05       0.00       0.00       2.54      89.80      13.52     103.32        2.48  1558.36   0.965
  sub65                    107.05       0.00       0.00       2.20      91.89      11.72     103.61        2.85  1746.80   0.968
  sub66                    107.05       0.00       0.00       6.21      74.94      24.84      99.77        4.65  2323.58   0.932
  sub67                    107.05       0.00       0.00       1.21      97.26       7.36     104.62        1.95  1451.70   0.977
  sub68                    107.05       0.00       0.00       2.26      90.89      12.73     103.62        2.85  1958.55   0.968
  sub69                    107.05       0.00       0.00       2.03      90.89      14.03     104.92        3.88  2322.10   0.980
  sub70                    107.05       0.00       0.00       6.77      70.49      29.63     100.13        2.89  1300.79   0.935
  sub71                    107.05       0.00       0.00       1.29      97.17       7.28     104.45        2.73  1684.40   0.976
  sub72                    107.05       0.00       0.00       1.14      98.16       6.35     104.51        1.44   818.30   0.976
  
  
  ******************
  Node Depth Summary
  ******************
  
  ---------------------------------------------------------------------------------
                                 Average  Maximum  Maximum  Time of Max    Reported
                                   Depth    Depth      HGL   Occurrence   Max Depth
  Node                 Type       Meters   Meters   Meters  days hr:min      Meters
  ---------------------------------------------------------------------------------
  WS02003060           JUNCTION     0.19     0.38     5.31     0  02:24        0.38
  WS02003066           JUNCTION     0.16     0.29     5.85     0  02:23        0.29
  WS02003067           JUNCTION     0.44     0.69     6.01     0  02:23        0.69
  WS02003069           JUNCTION     0.21     0.42     5.00     0  02:24        0.42
  WS02003072           JUNCTION     0.27     0.49     4.86     0  02:25        0.49
  WS02003073           JUNCTION     0.15     0.29     4.36     0  02:26        0.29
  WS02004401           JUNCTION     0.52     0.84     6.84     0  02:20        0.84
  WS02004402           JUNCTION     0.55     0.87     6.83     0  02:21        0.87
  WS02004403           JUNCTION     0.58     0.88     6.81     0  02:21        0.88
  WS02004404           JUNCTION     0.65     0.96     6.81     0  02:21        0.96
  WS02004405           JUNCTION     0.65     0.95     6.80     0  02:21        0.95
  WS02004406           JUNCTION     0.66     0.95     6.78     0  02:21        0.95
  WS02004407           JUNCTION     0.14     0.29     6.61     0  02:21        0.29
  WS02004409           JUNCTION     0.32     0.65     6.42     0  02:22        0.65
  WS02004410           JUNCTION     0.34     0.66     6.38     0  02:22        0.66
  WS02004411           JUNCTION     0.37     0.68     6.36     0  02:22        0.67
  WS02004412           JUNCTION     0.39     0.68     6.32     0  02:23        0.68
  WS02004413           JUNCTION     0.55     0.85     6.32     0  02:23        0.84
  WS02006109           JUNCTION     0.58     1.10     7.72     0  02:06        1.01
  WS02006110           JUNCTION     0.59     1.12     7.70     0  02:06        0.93
  WS02006111           JUNCTION     0.15     0.29     6.99     0  02:00        0.29
  WS02006112           JUNCTION     0.67     1.05     6.93     0  02:10        1.03
  WS02006113           JUNCTION     0.23     0.46     7.35     0  03:28        0.46
  WS02006115           JUNCTION     0.41     0.74     6.88     0  02:20        0.74
  WS02006116           JUNCTION     0.49     0.82     6.86     0  02:20        0.82
  WS02006228           JUNCTION     0.57     1.11     7.76     0  02:15        1.10
  WS02006229           JUNCTION     0.54     1.14     7.83     0  02:15        1.13
  WS02006230           JUNCTION     0.53     1.29     8.03     0  02:15        1.26
  WS02006231           JUNCTION     0.35     1.22     8.34     0  02:05        1.01
  WS02006232           JUNCTION     0.47     1.54     8.58     0  02:15        1.54
  WS02006234           JUNCTION     0.39     1.96     9.12     0  02:15        1.96
  WS02006235           JUNCTION     0.43     2.00     9.16     0  02:15        2.00
  WS02006238           JUNCTION     0.46     2.15     9.29     0  02:15        2.15
  WS02006239           JUNCTION     0.43     2.03     9.24     0  02:15        2.03
  WS02006240           JUNCTION     0.41     2.10     9.39     0  02:15        2.10
  WS02006242           JUNCTION     0.48     1.55     8.82     0  02:15        1.55
  WS02006243           JUNCTION     0.41     1.48     8.90     0  02:15        1.48
  WS02006245           JUNCTION     0.41     1.56     9.04     0  02:15        1.56
  WS02006247           JUNCTION     0.44     1.47     8.97     0  02:15        1.47
  WS02006248           JUNCTION     0.40     1.10     8.69     0  02:05        1.10
  WS02006249           JUNCTION     0.44     1.09     8.69     0  01:56        1.09
  WS02006251           JUNCTION     0.44     1.58     9.25     0  01:57        1.58
  WS02006252           JUNCTION     0.31     1.50     9.74     0  00:00        1.16
  WS02006256           JUNCTION     0.73     2.35     9.28     0  00:00        2.35
  WSF200               JUNCTION     0.13     0.28     5.52     0  02:23        0.28
  YS02001580           JUNCTION     0.22     1.05     9.59     0  01:39        0.77
  YS02001583           JUNCTION     0.25     1.14     9.64     0  01:39        0.82
  YS02001586           JUNCTION     0.39     1.13     9.30     0  01:39        1.13
  YS02001590           JUNCTION     0.53     1.40     9.26     0  01:39        1.38
  YS02001593           JUNCTION     0.46     1.33     9.20     0  01:39        1.29
  YS02001596           JUNCTION     0.62     1.68     9.10     0  01:39        1.65
  YS02001600           JUNCTION     0.73     1.87     9.00     0  01:37        1.86
  YS02001601           JUNCTION     0.93     2.06     8.90     0  01:37        2.06
  YS02001602           JUNCTION     0.81     1.87     8.77     0  01:38        1.87
  YS02001605           JUNCTION     0.76     1.78     8.68     0  01:38        1.78
  YS02001607           JUNCTION     0.70     1.68     8.53     0  01:38        1.66
  YS02001610           JUNCTION     0.75     1.68     8.48     0  01:38        1.68
  YS02001613           JUNCTION     0.71     1.70     8.54     0  01:39        1.70
  YS02001616           JUNCTION     0.64     1.61     8.52     0  01:38        1.61
  YS02001619           JUNCTION     0.62     1.61     8.54     0  01:38        1.61
  YS02001622           JUNCTION     0.61     1.62     8.52     0  01:38        1.62
  YS02001625           JUNCTION     0.85     1.78     8.38     0  01:39        1.78
  YS02001629           JUNCTION     0.77     1.85     8.40     0  01:38        1.85
  YS02001633           JUNCTION     0.85     2.08     8.53     0  01:49        2.08
  YS02001641           JUNCTION     0.80     1.96     8.40     0  01:43        1.96
  YS02001644           JUNCTION     0.79     1.92     8.35     0  01:43        1.92
  YS02001647           JUNCTION     0.57     1.81     8.42     0  01:44        1.79
  YS02001649           JUNCTION     0.64     2.05     8.44     0  01:44        2.05
  YS02001652           JUNCTION     0.52     2.16     8.76     0  01:44        1.98
  YS02001655           JUNCTION     0.42     2.20     9.05     0  01:44        1.87
  YS02001658           JUNCTION     0.32     2.30     9.44     0  01:44        1.72
  YS02001661           JUNCTION     0.29     2.04     9.44     0  01:45        1.58
  YS02001664           JUNCTION     0.14     1.39     9.31     0  01:47        1.19
  YS02001745           JUNCTION     0.17     1.24     8.75     0  01:47        1.04
  YS02001748           JUNCTION     0.29     2.27     9.35     0  01:44        1.44
  YS02001751           JUNCTION     0.36     2.20     9.08     0  01:44        1.61
  YS02001754           JUNCTION     0.46     2.18     8.78     0  01:44        1.83
  YS02001757           JUNCTION     0.66     2.14     8.40     0  01:44        2.13
  YS02001759           JUNCTION     0.60     2.18     8.54     0  01:44        2.17
  YS02001762           JUNCTION     0.59     2.15     8.55     0  01:43        2.11
  YS02001765           JUNCTION     0.57     2.10     8.55     0  01:44        2.05
  YS02001767           JUNCTION     0.56     2.03     8.52     0  01:43        1.99
  YS02001770           JUNCTION     0.57     1.95     8.44     0  01:43        1.95
  YS02001774           JUNCTION     0.63     2.02     8.45     0  01:43        2.01
  YS02001779           JUNCTION     0.45     1.68     8.37     0  01:43        1.68
  YS02001783           JUNCTION     0.43     1.50     7.64     0  01:42        1.27
  YS02001784           JUNCTION     0.42     1.24     7.31     0  01:42        1.14
  YS02001786           JUNCTION     0.34     0.97     7.00     0  01:42        0.89
  YS02001788           JUNCTION     0.25     0.62     6.60     0  01:53        0.62
  YS02001790           JUNCTION     0.29     0.73     6.37     0  01:53        0.72
  YS02001791           JUNCTION     0.18     0.44     5.91     0  01:53        0.43
  YS02001793           JUNCTION     0.09     0.29     5.12     0  01:55        0.27
  YS02001882           JUNCTION     0.54     1.83     8.55     0  01:40        1.75
  YS02001884           JUNCTION     0.62     1.93     8.55     0  01:40        1.85
  YS02001887           JUNCTION     0.70     1.94     8.48     0  01:40        1.94
  YS02001890           JUNCTION     0.72     1.81     8.32     0  01:40        1.81
  YS02001895           JUNCTION     0.50     1.63     8.38     0  01:40        1.56
  YS02001898           JUNCTION     0.50     1.61     8.35     0  01:40        1.56
  YS02001901           JUNCTION     0.61     1.69     8.30     0  01:42        1.68
  YS02001904           JUNCTION     0.59     1.65     8.28     0  01:42        1.63
  YS02001907           JUNCTION     0.91     1.96     8.25     0  01:42        1.96
  YS02001910           JUNCTION     0.73     2.02     8.53     0  01:42        2.01
  YS02001915           JUNCTION     0.56     2.00     8.72     0  01:47        2.00
  YS02001918           JUNCTION     0.37     1.81     8.88     0  01:42        1.81
  YS02001920           JUNCTION     0.45     2.11     9.12     0  01:42        2.03
  YS02001923           JUNCTION     0.30     2.03     9.29     0  01:42        1.92
  YS02001926           JUNCTION     0.31     1.90     9.35     0  01:42        1.90
  YS02001929           JUNCTION     0.21     1.78     9.47     0  01:42        1.78
  YS02006553           JUNCTION     0.91     2.02     8.30     0  01:42        2.00
  YS02006556           JUNCTION     0.88     2.06     8.37     0  01:42        2.03
  YS02006558           JUNCTION     0.92     2.12     8.39     0  01:42        2.11
  YS02006561           JUNCTION     0.28     1.31     7.97     0  01:42        0.94
  YS02163301           JUNCTION     0.79     1.95     8.47     0  01:49        1.95
  YS02163601           JUNCTION     0.87     2.07     8.47     0  01:43        2.07
  YS02164001           JUNCTION     0.80     1.99     8.44     0  01:43        1.97
  CC-1                 OUTFALL      0.00     0.00     0.00     0  00:00        0.00
  CC-2                 OUTFALL      0.00     0.00     0.00     0  00:00        0.00
  JK-1                 OUTFALL      0.00     0.00     0.00     0  00:00        0.00
  JK-2                 OUTFALL      0.00     0.00     0.00     0  00:00        0.00
  WSC                  OUTFALL      0.15     0.29     0.96     0  02:26        0.29
  CC-storage           STORAGE      0.86     1.76     7.26     0  02:34        1.76
  JK-storage           STORAGE      1.66     4.23     5.03     0  01:54        4.12
  
  
  *******************
  Node Inflow Summary
  *******************
  
  -------------------------------------------------------------------------------------------------
                                  Maximum  Maximum                  Lateral       Total        Flow
                                  Lateral    Total  Time of Max      Inflow      Inflow     Balance
                                   Inflow   Inflow   Occurrence      Volume      Volume       Error
  Node                 Type           LPS      LPS  days hr:min    10^6 ltr    10^6 ltr     Percent
  -------------------------------------------------------------------------------------------------
  WS02003060           JUNCTION     16.53   531.33     0  02:23       0.476         4.1       0.050
  WS02003066           JUNCTION      0.00   513.58     0  02:23           0        3.63       0.033
  WS02003067           JUNCTION      0.00   513.14     0  02:23           0        3.63       0.112
  WS02003069           JUNCTION      0.32   531.40     0  02:24     0.00922        4.11       0.086
  WS02003072           JUNCTION      0.00   529.39     0  02:25           0         4.1       0.154
  WS02003073           JUNCTION      1.82   529.92     0  02:25      0.0524        4.15       0.122
  WS02004401           JUNCTION      0.00   531.68     0  02:10           0        3.73       0.267
  WS02004402           JUNCTION      0.00   530.77     0  02:20           0        3.72       0.273
  WS02004403           JUNCTION      0.00   528.11     0  02:21           0        3.71       0.266
  WS02004404           JUNCTION      0.16   528.34     0  02:21     0.00467         3.7       0.222
  WS02004405           JUNCTION      0.04   528.16     0  02:21      0.0011         3.7       0.334
  WS02004406           JUNCTION      0.00   527.23     0  02:21           0        3.68       0.555
  WS02004407           JUNCTION      0.00   527.07     0  02:21           0        3.66       0.027
  WS02004409           JUNCTION      0.00   526.34     0  02:21           0        3.66       0.064
  WS02004410           JUNCTION      0.00   521.07     0  02:22           0        3.66       0.108
  WS02004411           JUNCTION      0.00   519.15     0  02:22           0        3.66       0.142
  WS02004412           JUNCTION      0.00   516.88     0  02:22           0        3.65       0.193
  WS02004413           JUNCTION      0.00   514.61     0  02:23           0        3.64       0.349
  WS02006109           JUNCTION      1.23   555.51     0  02:06      0.0354        3.78       0.268
  WS02006110           JUNCTION      0.00   556.63     0  02:06           0        3.77       0.165
  WS02006111           JUNCTION      0.00   562.43     0  03:28           0        3.76       0.017
  WS02006112           JUNCTION      0.00   542.49     0  03:28           0        3.76       0.461
  WS02006113           JUNCTION      0.00   568.05     0  02:16           0        3.76       0.043
  WS02006115           JUNCTION      0.00   546.48     0  02:07           0        3.74       0.167
  WS02006116           JUNCTION      0.00   537.59     0  02:20           0        3.73       0.146
  WS02006228           JUNCTION      0.00   554.30     0  02:06           0        3.74       0.125
  WS02006229           JUNCTION      0.00   553.86     0  02:06           0        3.75       0.096
  WS02006230           JUNCTION     10.28   597.11     0  02:05       0.296        3.75       0.122
  WS02006231           JUNCTION      0.00   580.79     0  02:15           0        3.46       0.007
  WS02006232           JUNCTION      0.00   578.35     0  02:15           0        3.46       0.137
  WS02006234           JUNCTION      0.00   572.07     0  02:15           0        3.46      -0.147
  WS02006235           JUNCTION      0.00   561.95     0  02:15           0        3.47       0.149
  WS02006238           JUNCTION      0.00   424.03     0  02:20           0        3.19      -0.182
  WS02006239           JUNCTION      0.00   423.90     0  02:05           0        3.17      -0.197
  WS02006240           JUNCTION      0.00   423.79     0  03:36           0        3.17      -0.035
  WS02006242           JUNCTION      0.00   424.40     0  03:36           0        3.17      -0.007
  WS02006243           JUNCTION      0.00   425.52     0  03:36           0        3.16      -0.199
  WS02006245           JUNCTION      0.00   426.06     0  03:36           0        3.17       0.363
  WS02006247           JUNCTION      0.00   426.66     0  03:36           0        3.17      -0.037
  WS02006248           JUNCTION      0.00   427.48     0  03:36           0        3.17      -0.118
  WS02006249           JUNCTION      0.00   472.27     0  03:45           0        3.24       0.449
  WS02006251           JUNCTION      0.08   411.62     0  01:57     0.00222        3.24       0.036
  WS02006252           JUNCTION      0.00   400.00     0  00:00           0        3.22      -0.552
  WS02006256           JUNCTION      0.00   300.00     0  00:00           0       0.418      -1.588
  WSF200               JUNCTION      0.00   513.79     0  02:23           0        3.63       0.011
  YS02001580           JUNCTION      0.00   138.50     0  01:39           0     0.00433      -0.553
  YS02001583           JUNCTION      0.00   162.15     0  01:39           0      0.0155      -4.086
  YS02001586           JUNCTION   1300.79  1300.79     0  01:52        2.89        2.91       0.025
  YS02001590           JUNCTION      0.00   318.74     0  02:15           0        1.74      -0.029
  YS02001593           JUNCTION      0.00   318.30     0  02:15           0        1.74      -0.003
  YS02001596           JUNCTION      0.00   318.26     0  02:11           0        1.74      -0.014
  YS02001600           JUNCTION      0.00   318.10     0  02:14           0        1.74       0.001
  YS02001601           JUNCTION   2322.10  2639.60     0  01:51        3.89        5.63      -0.010
  YS02001602           JUNCTION      0.00   523.27     0  01:38           0        2.75       0.010
  YS02001605           JUNCTION      0.00   522.96     0  01:38           0        2.56       0.011
  YS02001607           JUNCTION      0.00   522.94     0  01:38           0        2.56       0.069
  YS02001610           JUNCTION      0.00   953.07     0  01:55           0        3.31       0.046
  YS02001613           JUNCTION      0.00   616.57     0  01:56           0        2.52       0.053
  YS02001616           JUNCTION      0.00   616.69     0  01:56           0        2.52       0.010
  YS02001619           JUNCTION   2323.58  2323.58     0  01:52        4.65        6.42      -0.011
  YS02001622           JUNCTION      0.00  1053.92     0  01:56           0        5.37      -0.008
  YS02001625           JUNCTION      0.00  1505.16     0  01:58           0        5.84       0.141
  YS02001629           JUNCTION      0.00   951.17     0  01:51           0        4.29      -0.001
  YS02001633           JUNCTION   1747.00  1747.00     0  01:51        2.86        6.39       0.050
  YS02001641           JUNCTION      0.00  1401.99     0  01:42           0        5.64       0.042
  YS02001644           JUNCTION   1558.40  2745.48     0  01:50        2.48        8.21       0.019
  YS02001647           JUNCTION      0.00  1833.38     0  01:42           0        6.59       0.005
  YS02001649           JUNCTION      0.00  2134.84     0  01:42           0        8.81       0.005
  YS02001652           JUNCTION      0.00  1534.26     0  01:50           0         2.3      -0.037
  YS02001655           JUNCTION      0.15  1534.29     0  01:50     0.00443         2.3      -0.147
  YS02001658           JUNCTION      0.00  1533.74     0  01:50           0        2.31      -0.073
  YS02001661           JUNCTION      0.00  1534.02     0  01:50           0        2.31       0.030
  YS02001664           JUNCTION   1533.11  1533.11     0  01:50         2.3         2.3      -0.007
  YS02001745           JUNCTION    974.82   974.82     0  01:50        1.37        1.37       0.156
  YS02001748           JUNCTION      0.04   983.93     0  01:50      0.0013        1.37      -0.223
  YS02001751           JUNCTION      0.01   984.17     0  01:50    0.000317        1.37       0.014
  YS02001754           JUNCTION      0.26   984.36     0  01:50     0.00749        1.38      -0.121
  YS02001757           JUNCTION      0.00  3694.18     0  01:48           0          14       0.038
  YS02001759           JUNCTION   1354.29  1557.61     0  01:49         1.9        3.88      -0.014
  YS02001762           JUNCTION      0.00   818.26     0  01:44           0        1.98       0.003
  YS02001765           JUNCTION      0.00   818.98     0  01:44           0        1.98       0.005
  YS02001767           JUNCTION      0.54   819.44     0  01:44      0.0154        1.98       0.003
  YS02001770           JUNCTION   1905.05  1905.05     0  01:50        2.87        2.92      -0.011
  YS02001774           JUNCTION      0.00   851.16     0  01:55           0       0.723       0.159
  YS02001779           JUNCTION      0.01   851.17     0  01:55    0.000144       0.676      -0.092
  YS02001783           JUNCTION      0.00  1188.33     0  01:49           0        5.27       0.004
  YS02001784           JUNCTION      1.06  1189.71     0  01:49      0.0305         5.3       0.009
  YS02001786           JUNCTION      0.06  1189.76     0  01:49     0.00162         5.3       0.013
  YS02001788           JUNCTION      0.07  1190.03     0  01:49     0.00204         5.3       0.006
  YS02001790           JUNCTION      0.15  1189.86     0  01:49     0.00446        5.31       0.023
  YS02001791           JUNCTION      0.00  1286.32     0  01:53           0        5.31      -0.026
  YS02001793           JUNCTION      0.00  1247.87     0  02:03           0        5.31       0.005
  YS02001882           JUNCTION      0.00    66.66     0  01:40           0      0.0135       4.761
  YS02001884           JUNCTION      0.00    73.66     0  01:40           0      0.0499       5.289
  YS02001887           JUNCTION   1452.15  1453.80     0  01:49        1.96        1.99       0.216
  YS02001890           JUNCTION      0.00  1453.90     0  01:49           0        1.95       0.241
  YS02001895           JUNCTION      0.00   517.76     0  01:58           0         1.5       0.119
  YS02001898           JUNCTION      0.00   518.01     0  01:57           0        1.49       0.011
  YS02001901           JUNCTION      0.00   517.82     0  02:00           0         1.5       0.219
  YS02001904           JUNCTION      0.00   517.79     0  01:57           0         1.5       0.178
  YS02001907           JUNCTION      0.00  3285.91     0  01:50           0        5.88       0.277
  YS02001910           JUNCTION      0.00  1992.45     0  01:55           0         4.1       0.173
  YS02001915           JUNCTION   1684.42  2506.27     0  01:51        2.73        4.29       0.028
  YS02001918           JUNCTION      0.00   822.36     0  01:51           0        1.59       0.009
  YS02001920           JUNCTION      2.87   822.23     0  01:51      0.0827        1.57       0.059
  YS02001923           JUNCTION      0.04   819.08     0  01:51     0.00109        1.47      -0.046
  YS02001926           JUNCTION      0.05   818.84     0  01:51      0.0015        1.45      -0.002
  YS02001929           JUNCTION    818.30   818.30     0  01:51        1.44        1.44      -0.013
  YS02006553           JUNCTION      0.00   794.30     0  02:18           0        3.01       0.388
  YS02006556           JUNCTION      0.00   793.82     0  02:18           0        3.02       0.263
  YS02006558           JUNCTION   1959.43  1959.43     0  01:50        2.88        5.59       0.066
  YS02006561           JUNCTION      0.00  1188.57     0  01:49           0        5.27      -0.004
  YS02163301           JUNCTION      0.00   950.99     0  01:51           0        4.28       0.023
  YS02163601           JUNCTION      0.11  1402.24     0  01:42     0.00317        5.64       0.082
  YS02164001           JUNCTION      0.00  1402.51     0  01:42           0        5.64       0.029
  CC-1                 OUTFALL       0.00   683.00     0  00:00           0        6.12       0.000
  CC-2                 OUTFALL       0.00   683.00     0  00:00           0         5.5       0.000
  JK-1                 OUTFALL       0.00  1000.00     0  00:00           0       0.365       0.000
  JK-2                 OUTFALL       0.00  1000.00     0  00:00           0        4.63       0.000
  WSC                  OUTFALL       0.00   528.24     0  02:26           0        4.15       0.000
  CC-storage           STORAGE       0.00  3694.25     0  01:48           0        16.2      -0.206
  JK-storage           STORAGE       0.00  1270.26     0  02:00           0        5.46      -0.293
  
  
  **********************
  Node Surcharge Summary
  **********************
  
  Surcharging occurs when water rises above the top of the highest conduit.
  ---------------------------------------------------------------------
                                               Max. Height   Min. Depth
                                   Hours       Above Crown    Below Rim
  Node                 Type      Surcharged         Meters       Meters
  ---------------------------------------------------------------------
  WS02006109           JUNCTION        1.75          0.284        1.536
  WS02006110           JUNCTION        0.18          0.207        1.643
  WS02006112           JUNCTION        0.14          0.050        1.630
  WS02006228           JUNCTION        1.75          0.280        1.920
  WS02006229           JUNCTION        1.75          0.340        2.110
  WS02006230           JUNCTION        0.19          0.208        1.362
  WS02006231           JUNCTION        0.26          0.510        1.020
  WS02006232           JUNCTION        1.77          0.843        0.637
  WS02006234           JUNCTION        0.50          1.240        0.000
  WS02006235           JUNCTION        1.73          1.290        0.000
  WS02006238           JUNCTION        1.76          1.430        0.000
  WS02006239           JUNCTION        1.73          1.290        0.000
  WS02006240           JUNCTION        1.74          1.390        0.000
  WS02006242           JUNCTION        1.76          0.820        0.000
  WS02006243           JUNCTION        1.74          0.770        0.000
  WS02006245           JUNCTION        1.74          0.850        0.000
  WS02006247           JUNCTION        1.74          0.760        0.000
  WS02006248           JUNCTION        1.73          0.380        0.000
  WS02006249           JUNCTION        1.73          0.390        0.000
  WS02006251           JUNCTION        0.29          0.546        0.634
  WS02006252           JUNCTION        2.03          1.100        0.000
  WS02006256           JUNCTION        5.61          2.050        0.000
  YS02001580           JUNCTION        0.99          0.450        0.000
  YS02001583           JUNCTION        1.00          0.500        0.000
  YS02001586           JUNCTION        1.16          0.510        0.000
  YS02001590           JUNCTION        1.25          0.750        0.000
  YS02001593           JUNCTION        1.25          0.714        0.126
  YS02001596           JUNCTION        1.39          0.954        0.116
  YS02001600           JUNCTION        1.54          1.190        0.000
  YS02001601           JUNCTION        1.78          1.440        0.000
  YS02001602           JUNCTION        1.70          1.270        0.000
  YS02001605           JUNCTION        1.67          1.180        0.000
  YS02001607           JUNCTION        1.26          0.680        0.000
  YS02001610           JUNCTION        1.29          0.680        0.000
  YS02001613           JUNCTION        1.25          0.700        0.000
  YS02001616           JUNCTION        1.19          0.610        0.000
  YS02001619           JUNCTION        1.18          0.610        0.000
  YS02001622           JUNCTION        1.18          0.620        0.000
  YS02001625           JUNCTION        1.40          0.780        0.000
  YS02001629           JUNCTION        1.12          0.470        0.000
  YS02001633           JUNCTION        1.43          1.060        0.000
  YS02001641           JUNCTION        1.38          0.961        0.139
  YS02001644           JUNCTION        1.35          0.920        0.000
  YS02001647           JUNCTION        1.09          0.815        0.085
  YS02001649           JUNCTION        1.26          1.050        0.000
  YS02001652           JUNCTION        1.00          1.130        0.000
  YS02001655           JUNCTION        0.72          1.200        0.000
  YS02001658           JUNCTION        0.42          1.300        0.000
  YS02001661           JUNCTION        0.20          0.970        0.420
  YS02001664           JUNCTION        0.04          0.387        0.923
  YS02001745           JUNCTION        0.02          0.235        1.115
  YS02001748           JUNCTION        0.33          1.190        0.000
  YS02001751           JUNCTION        0.55          1.200        0.000
  YS02001754           JUNCTION        0.87          1.127        0.023
  YS02001757           JUNCTION        1.33          1.144        0.066
  YS02001759           JUNCTION        1.23          1.176        0.034
  YS02001762           JUNCTION        1.19          1.150        0.000
  YS02001765           JUNCTION        1.13          1.096        0.004
  YS02001767           JUNCTION        1.09          1.030        0.000
  YS02001770           JUNCTION        1.05          0.920        0.000
  YS02001774           JUNCTION        1.16          1.025        0.025
  YS02001779           JUNCTION        0.85          0.680        0.000
  YS02001783           JUNCTION        0.81          0.696        0.904
  YS02001784           JUNCTION        0.78          0.441        1.049
  YS02001786           JUNCTION        0.65          0.173        1.257
  YS02001882           JUNCTION        0.74          0.830        0.000
  YS02001884           JUNCTION        0.75          0.870        0.000
  YS02001887           JUNCTION        0.80          0.892        0.058
  YS02001890           JUNCTION        0.82          0.760        0.000
  YS02001895           JUNCTION        0.73          0.628        0.122
  YS02001898           JUNCTION        0.72          0.584        0.156
  YS02001901           JUNCTION        0.78          0.693        0.177
  YS02001904           JUNCTION        0.77          0.646        0.204
  YS02001907           JUNCTION        1.07          0.950        0.000
  YS02001910           JUNCTION        0.85          1.018        0.082
  YS02001915           JUNCTION        0.74          1.000        0.000
  YS02001918           JUNCTION        0.64          0.810        0.000
  YS02001920           JUNCTION        0.65          1.113        0.027
  YS02001923           JUNCTION        0.28          0.820        0.000
  YS02001926           JUNCTION        0.31          0.900        0.000
  YS02001929           JUNCTION        0.18          0.780        0.000
  YS02006553           JUNCTION        1.09          1.015        0.175
  YS02006556           JUNCTION        0.96          1.019        0.331
  YS02006558           JUNCTION        0.95          1.022        0.378
  YS02006561           JUNCTION        0.60          0.509        0.641
  YS02163301           JUNCTION        1.41          0.950        0.080
  YS02163601           JUNCTION        1.46          1.070        0.010
  YS02164001           JUNCTION        1.38          0.986        0.114
  
  
  *********************
  Node Flooding Summary
  *********************
  
  Flooding refers to all water that overflows a node, whether it ponds or not.
  --------------------------------------------------------------------------
                                                             Total   Maximum
                                 Maximum   Time of Max       Flood    Ponded
                        Hours       Rate    Occurrence      Volume     Depth
  Node                 Flooded       LPS   days hr:min    10^6 ltr    Meters
  --------------------------------------------------------------------------
  WS02006234              0.01      8.45      0  02:15       0.000     0.000
  WS02006235              0.01     14.62      0  02:15       0.000     0.000
  WS02006238              0.01     12.29      0  02:15       0.000     0.000
  WS02006239              0.01      6.46      0  02:15       0.000     0.000
  WS02006240              0.01      9.71      0  02:15       0.000     0.000
  WS02006242              0.01     21.72      0  02:15       0.000     0.000
  WS02006243              0.01      4.54      0  02:15       0.000     0.000
  WS02006245              0.01      3.85      0  02:15       0.000     0.000
  WS02006247              0.01      2.95      0  02:15       0.000     0.000
  WS02006248              0.01     18.30      0  02:15       0.000     0.000
  WS02006249              0.27    118.87      0  01:57       0.062     0.000
  WS02006252              0.01    245.63      0  00:00       0.000     0.000
  WS02006256              0.38    293.19      0  00:00       0.139     0.000
  YS02001580              0.01    125.99      0  01:39       0.000     0.000
  YS02001583              0.01     42.50      0  01:39       0.000     0.000
  YS02001586              0.82    983.25      0  01:52       1.153     0.000
  YS02001590              0.01      1.90      0  01:39       0.000     0.000
  YS02001600              0.01      4.26      0  01:37       0.000     0.000
  YS02001601              1.06   2241.64      0  01:51       2.872     0.000
  YS02001602              0.94     62.08      0  02:19       0.191     0.000
  YS02001605              0.01      5.87      0  01:39       0.000     0.000
  YS02001607              0.01     15.62      0  01:38       0.000     0.000
  YS02001610              0.83    952.86      0  01:55       1.542     0.000
  YS02001613              0.01     32.14      0  01:39       0.000     0.000
  YS02001616              0.04     24.11      0  01:39       0.000     0.000
  YS02001619              0.22    656.55      0  01:52       0.302     0.000
  YS02001622              0.01    105.95      0  01:38       0.000     0.000
  YS02001625              0.79   1505.02      0  01:58       2.288     0.000
  YS02001629              0.28    542.25      0  01:50       0.293     0.000
  YS02001633              0.01      0.53      0  01:49       0.000     0.000
  YS02001644              0.36   2745.40      0  01:50       1.693     0.000
  YS02001649              0.01     73.49      0  01:47       0.001     0.000
  YS02001652              0.01     55.14      0  01:44       0.000     0.000
  YS02001655              0.01     56.60      0  01:44       0.000     0.000
  YS02001658              0.01    427.75      0  01:44       0.000     0.000
  YS02001748              0.01    328.10      0  01:44       0.000     0.000
  YS02001751              0.01    263.95      0  01:44       0.000     0.000
  YS02001762              0.01     68.15      0  01:43       0.000     0.000
  YS02001767              0.01     19.76      0  01:43       0.000     0.000
  YS02001770              0.14    868.68      0  01:50       0.246     0.000
  YS02001779              0.33    851.17      0  01:55       0.654     0.000
  YS02001882              0.01     17.84      0  01:40       0.000     0.000
  YS02001884              0.01     16.93      0  01:40       0.000     0.000
  YS02001890              0.32    937.19      0  01:49       0.451     0.000
  YS02001907              0.57   3285.63      0  01:50       3.150     0.000
  YS02001915              0.14    513.67      0  01:51       0.148     0.000
  YS02001918              0.01    134.04      0  01:43       0.002     0.000
  YS02001923              0.01    235.54      0  01:42       0.000     0.000
  YS02001926              0.01    413.60      0  01:42       0.001     0.000
  YS02001929              0.01    237.12      0  01:42       0.001     0.000
  
  
  **********************
  Storage Volume Summary
  **********************
  
  ------------------------------------------------------------------------------------------------
                         Average    Avg   Evap  Exfil     Maximum    Max    Time of Max    Maximum
                          Volume   Pcnt   Pcnt   Pcnt      Volume   Pcnt     Occurrence    Outflow
  Storage Unit           1000 m³   Full   Loss   Loss     1000 m³   Full    days hr:min        LPS
  ------------------------------------------------------------------------------------------------
  CC-storage               2.389   37.3    0.0    0.0       4.914   76.7       0  02:34    1783.53
  JK-storage               0.083   28.6    0.0    0.0       0.213   73.0       0  01:54    2300.00
  
  
  ***********************
  Outfall Loading Summary
  ***********************
  
  -----------------------------------------------------------
                         Flow       Avg       Max       Total
                         Freq      Flow      Flow      Volume
  Outfall Node           Pcnt       LPS       LPS    10^6 ltr
  -----------------------------------------------------------
  CC-1                  60.67    683.00    683.00       6.118
  CC-2                  54.39    683.00    683.00       5.503
  JK-1                   2.69   1000.00   1000.00       0.365
  JK-2                  34.25   1000.00   1000.00       4.635
  WSC                   99.94    192.42    528.24       4.146
  -----------------------------------------------------------
  System                50.39   3558.42   3862.60      20.768
  
  
  ********************
  Link Flow Summary
  ********************
  
  -----------------------------------------------------------------------------
                                 Maximum  Time of Max   Maximum    Max/    Max/
                                  |Flow|   Occurrence   |Veloc|    Full    Full
  Link                 Type          LPS  days hr:min     m/sec    Flow   Depth
  -----------------------------------------------------------------------------
  1                    CONDUIT    528.24     0  02:26      2.79    0.18    0.29
  WS02003060WS02003069 CONDUIT    531.08     0  02:24      1.63    0.21    0.33
  WS02003066WSF200     CONDUIT    513.79     0  02:23      2.82    0.09    0.22
  WS02003067WS02003066 CONDUIT    513.58     0  02:23      1.18    0.16    0.41
  WS02003069WS02003072 CONDUIT    529.39     0  02:25      1.35    0.25    0.38
  WS02003072WS02003073 CONDUIT    528.09     0  02:25      1.41    1.14    0.37
  WS02004401WS02004402 CONDUIT    530.77     0  02:20      0.98    0.64    0.85
  WS02004402WS02004403 CONDUIT    528.11     0  02:21      0.98    0.76    0.88
  WS02004403WS02004404 CONDUIT    528.18     0  02:21      0.92    0.38    0.92
  WS02004404WS02004405 CONDUIT    528.13     0  02:21      1.08    5.17    0.95
  WS02004405WS02004406 CONDUIT    527.23     0  02:21      0.99    1.04    0.95
  WS02004406WS02004407 CONDUIT    527.07     0  02:21      1.03    0.24    0.62
  WS02004407WS02004409 CONDUIT    526.34     0  02:21      1.50    0.19    0.47
  WS02004409WS02004410 CONDUIT    521.07     0  02:22      0.99    0.67    0.66
  WS02004410WS02004411 CONDUIT    519.15     0  02:22      0.94    0.71    0.67
  WS02004411WS02004412 CONDUIT    516.88     0  02:22      0.91    0.73    0.68
  WS02004412WS02004413 CONDUIT    514.61     0  02:23      0.80    0.34    0.76
  WS02004413WS02003067 CONDUIT    513.14     0  02:23      1.08    0.22    0.58
  WS02006109WS02006110 CONDUIT    556.63     0  02:06      1.11    1.07    1.00
  WS02006110WS02006113 CONDUIT    568.05     0  02:16      1.37    0.52    0.79
  WS02006111WS02006112 CONDUIT    542.49     0  03:28      1.83    0.26    0.67
  WS02006112WS02006115 CONDUIT    546.48     0  02:07      0.82    0.32    0.87
  WS02006113WS02006111 CONDUIT    562.43     0  03:28      2.47    0.67    0.46
  WS02006115WS02006116 CONDUIT    537.59     0  02:20      0.99    0.69    0.75
  WS02006116WS02004401 CONDUIT    531.68     0  02:10      0.98    0.73    0.83
  WS02006228WS02006109 CONDUIT    554.28     0  02:06      1.10    2.42    1.00
  WS02006229WS02006228 CONDUIT    554.30     0  02:06      1.14    1.84    1.00
  WS02006230WS02006229 CONDUIT    553.86     0  02:06      1.44   12.33    1.00
  WS02006231WS02006230 CONDUIT    586.83     0  02:05      1.59    8.90    1.00
  WS02006232WS02006231 CONDUIT    580.79     0  02:15      1.54    1.22    1.00
  WS02006234WS02006232 CONDUIT    578.35     0  02:15      1.50    1.17    1.00
  WS02006235WS02006234 CONDUIT    572.07     0  02:15      1.49    6.04    1.00
  WS02006238WS02006235 CONDUIT    442.63     0  02:15      1.45    0.99    1.00
  WS02006239WS02006238 CONDUIT    424.03     0  02:20      1.10    1.36    1.00
  WS02006240WS02006239 CONDUIT    423.90     0  02:05      1.24    1.33    1.00
  WS02006242WS02006240 CONDUIT    423.79     0  03:36      1.13    1.68    1.00
  WS02006243WS02006242 CONDUIT    424.40     0  03:36      1.40    0.91    1.00
  WS02006245WS02006243 CONDUIT    425.52     0  03:36      1.45    1.26    1.00
  WS02006247WS02006245 CONDUIT    426.06     0  03:36      1.43    3.38    1.00
  WS02006248WS02006247 CONDUIT    426.66     0  03:36      1.45    0.93    1.00
  WS02006249WS02006248 CONDUIT    427.48     0  03:36      1.39    2.34    1.00
  WS02006251WS02006249 CONDUIT    472.27     0  03:45      1.99    1.36    1.00
  WS02006252WS02006251 CONDUIT    411.54     0  01:57     26.58    1.51    1.00
  WS02006256WS02006235 CONDUIT    288.91     0  00:00      4.23    3.06    1.00
  WSF200WS02003060     CONDUIT    514.80     0  02:23      2.04    0.11    0.27
  YS02001580YS02001583 CONDUIT    138.50     0  01:39      0.66    0.54    1.00
  YS02001583YS02001586 CONDUIT    155.34     0  01:39      0.68    0.23    1.00
  YS02001586YS02001590 CONDUIT    318.74     0  02:15      1.25    0.56    1.00
  YS02001590YS02001593 CONDUIT    318.30     0  02:15      1.13    2.00    1.00
  YS02001593YS02001596 CONDUIT    318.26     0  02:11      1.72    0.50    1.00
  YS02001596YS02001600 CONDUIT    318.10     0  02:14      1.26    0.62    1.00
  YS02001600YS02001601 CONDUIT    318.06     0  02:15      1.12    0.55    1.00
  YS02001601YS02001602 CONDUIT    523.27     0  01:38      1.85    1.89    1.00
  YS02001602YS02001605 CONDUIT    522.96     0  01:38      1.85   11.07    1.00
  YS02001605YS02001607 CONDUIT    522.94     0  01:38      1.85    2.87    1.00
  YS02001607YS02001610 CONDUIT    528.74     0  01:38      0.67    0.50    1.00
  YS02001610YS02001613 CONDUIT    616.61     0  01:56      0.79    0.71    1.00
  YS02001613YS02001616 CONDUIT    616.57     0  01:56      0.79    0.53    1.00
  YS02001616YS02001619 CONDUIT    616.69     0  01:56      0.79    1.07    1.00
  YS02001619YS02001622 CONDUIT   1053.92     0  01:56      1.34    1.55    1.00
  YS02001622YS02001625 CONDUIT   1053.64     0  01:56      1.34    0.56    1.00
  YS02001625YS02001629 CONDUIT    928.19     0  01:41      1.19    0.44    1.00
  YS02001629YS02163301 CONDUIT    951.17     0  01:51      1.21    1.17    1.00
  YS02001633YS02163601 CONDUIT   1402.13     0  01:42      1.79    1.47    1.00
  YS02001641YS02001644 CONDUIT   1402.04     0  01:42      1.79    4.53    1.00
  YS02001644YS02001647 CONDUIT   1833.38     0  01:42      2.34    1.08    1.00
  YS02001647YS02001649 CONDUIT   1857.10     0  01:42      2.37    0.98    1.00
  YS02001649YS02001757 CONDUIT   2138.01     0  01:42      2.73    1.30    1.00
  YS02001652YS02001649 CONDUIT   1534.46     0  01:50      1.95    0.76    1.00
  YS02001655YS02001652 CONDUIT   1534.26     0  01:50      1.95    0.75    1.00
  YS02001658YS02001655 CONDUIT   1534.14     0  01:50      1.95    0.65    1.00
  YS02001661YS02001658 CONDUIT   1533.74     0  01:50      2.37    0.60    1.00
  YS02001664YS02001661 CONDUIT   1534.02     0  01:50      2.38    0.48    1.00
  YS02001745YS02001748 CONDUIT    983.89     0  01:50      2.24    0.38    1.00
  YS02001748YS02001751 CONDUIT    984.16     0  01:50      1.75    0.50    1.00
  YS02001751YS02001754 CONDUIT    984.10     0  01:50      1.47    0.47    1.00
  YS02001754YS02001757 CONDUIT    984.25     0  01:50      1.25    0.40    1.00
  YS02001757CaochengTiaoxuchi CONDUIT   3694.25     0  01:48      5.05    1.60    1.00
  YS02001759YS02001757 CONDUIT   1557.70     0  01:49      1.98    1.11    1.00
  YS02001762YS02001759 CONDUIT    817.47     0  01:44      1.04    0.94    1.00
  YS02001765YS02001762 CONDUIT    818.26     0  01:44      1.04    0.77    1.00
  YS02001767YS02001765 CONDUIT    818.98     0  01:44      1.04    1.03    1.00
  YS02001770YS02001767 CONDUIT    818.90     0  01:44      1.04    3.24    1.00
  YS02001774YS02001770 CONDUIT    851.16     0  01:55      1.08    0.54    1.00
  YS02001779YS02001774 CONDUIT    851.16     0  01:55      1.08    0.43    1.00
  YS02001783YS02001784 CONDUIT   1188.65     0  01:49      2.36    1.64    1.00
  YS02001784YS02001785 CONDUIT   1189.70     0  01:49      2.37    2.77    1.00
  YS02001786YS02001788 CONDUIT   1189.96     0  01:49      2.52    2.29    0.89
  YS02001788YS02001790 CONDUIT   1189.70     0  01:49      2.73    0.88    0.84
  YS02001790YS02001791 CONDUIT   1286.32     0  01:53      3.43    1.40    0.71
  YS02001791YS02001793 CONDUIT   1247.87     0  02:03      6.79    0.54    0.44
  YS02001793JiankangQianchi CONDUIT   1270.26     0  02:00      2.53    0.10    0.64
  YS02001882YS02001884 CONDUIT     66.66     0  01:40      0.18    0.08    1.00
  YS02001884YS02001887 CONDUIT     73.66     0  01:40      0.13    0.10    1.00
  YS02001887YS02001890 CONDUIT   1453.90     0  01:49      1.85    2.49    1.00
  YS02001890YS02001895 CONDUIT    517.76     0  01:58      0.66    0.24    1.00
  YS02001895YS02001898 CONDUIT    518.01     0  01:57      0.66    0.90    1.00
  YS02001898YS02001901 CONDUIT    517.82     0  02:00      0.66    0.33    1.00
  YS02001901YS02001904 CONDUIT    517.79     0  01:57      0.66    0.80    1.00
  YS02001904YS02001907 CONDUIT    518.30     0  01:57      0.66    0.18    1.00
  YS02001907YS02006553 CONDUIT    794.30     0  02:18      0.88    0.93    1.00
  YS02001910YS02001907 CONDUIT   1992.45     0  01:55      2.54    1.12    1.00
  YS02001915YS02001910 CONDUIT   1992.45     0  01:55      2.54    0.99    1.00
  YS02001918YS02001915 CONDUIT    822.52     0  01:51      1.05    0.45    1.00
  YS02001920YS02001918 CONDUIT    822.36     0  01:51      1.05    0.80    1.00
  YS02001923YS02001920 CONDUIT    819.36     0  01:51      1.04    0.37    1.00
  YS02001926YS02001923 CONDUIT    819.04     0  01:51      1.04    1.17    1.00
  YS02001929YS02001926 CONDUIT    818.79     0  01:51      1.12    0.39    1.00
  YS02006553YS02006556 CONDUIT    793.82     0  02:18      1.01    0.68    1.00
  YS02006556YS02006558 CONDUIT    795.50     0  02:19      1.01    0.63    1.00
  YS02006558YS02006561 CONDUIT   1188.57     0  01:49      4.20    2.63    1.00
  YS02006561YS02001783 CONDUIT   1188.33     0  01:49      2.36    0.62    1.00
  YS02163301YS02001633 CONDUIT    950.99     0  01:51      1.21    0.89    1.00
  YS02163601YS02164001 CONDUIT   1402.51     0  01:42      1.79    1.24    1.00
  YS02164001YS02001641 CONDUIT   1401.99     0  01:42      1.79    1.91    1.00
  CC-R1                PUMP       683.00     0  00:00              1.00
  CC-R2                PUMP       683.00     0  00:00              1.00
  CC-S1                PUMP       200.00     0  00:00              1.00
  CC-S2                PUMP       200.00     0  00:00              1.00
  JK-R1                PUMP      1000.00     0  00:00              1.00
  JK-R2                PUMP      1000.00     0  00:00              1.00
  JK-S                 PUMP       300.00     0  00:00              1.00
  
  
  ***************************
  Flow Classification Summary
  ***************************
  
  -------------------------------------------------------------------------------------
                      Adjusted    ---------- Fraction of Time in Flow Class ---------- 
                       /Actual         Up    Down  Sub   Sup   Up    Down  Norm  Inlet 
  Conduit               Length    Dry  Dry   Dry   Crit  Crit  Crit  Crit  Ltd   Ctrl  
  -------------------------------------------------------------------------------------
  1                       1.00   0.00  0.00  0.00  0.00  1.00  0.00  0.00  0.54  0.00
  WS02003060WS02003069    1.00   0.00  0.00  0.00  0.98  0.02  0.00  0.00  0.72  0.00
  WS02003066WSF200        1.00   0.10  0.00  0.00  0.00  0.90  0.00  0.00  0.85  0.00
  WS02003067WS02003066    1.00   0.09  0.01  0.00  0.90  0.00  0.00  0.00  0.00  0.00
  WS02003069WS02003072    1.00   0.00  0.00  0.00  0.99  0.01  0.00  0.00  0.77  0.00
  WS02003072WS02003073    1.00   0.00  0.00  0.00  0.00  0.00  0.00  1.00  0.00  0.00
  WS02004401WS02004402    1.00   0.02  0.00  0.00  0.98  0.00  0.00  0.00  0.00  0.00
  WS02004402WS02004403    1.00   0.02  0.00  0.00  0.97  0.00  0.00  0.00  0.00  0.00
  WS02004403WS02004404    1.00   0.00  0.03  0.00  0.97  0.00  0.00  0.00  0.00  0.00
  WS02004404WS02004405    1.00   0.00  0.00  0.00  1.00  0.00  0.00  0.00  0.00  0.00
  WS02004405WS02004406    1.00   0.00  0.00  0.00  1.00  0.00  0.00  0.00  0.00  0.00
  WS02004406WS02004407    1.00   0.00  0.05  0.00  0.95  0.00  0.00  0.00  0.00  0.00
  WS02004407WS02004409    1.00   0.05  0.00  0.00  0.95  0.01  0.00  0.00  0.95  0.00
  WS02004409WS02004410    1.00   0.05  0.00  0.00  0.95  0.00  0.00  0.00  0.02  0.00
  WS02004410WS02004411    1.00   0.05  0.00  0.00  0.95  0.00  0.00  0.00  0.00  0.00
  WS02004411WS02004412    1.00   0.05  0.00  0.00  0.95  0.00  0.00  0.00  0.00  0.00
  WS02004412WS02004413    1.00   0.05  0.00  0.00  0.94  0.00  0.00  0.00  0.01  0.00
  WS02004413WS02003067    1.00   0.05  0.03  0.00  0.00  0.00  0.91  0.00  0.00  0.00
  WS02006109WS02006110    1.00   0.00  0.01  0.00  0.98  0.00  0.01  0.00  0.00  0.00
  WS02006110WS02006113    1.00   0.01  0.01  0.00  0.98  0.00  0.00  0.00  0.00  0.00
  WS02006111WS02006112    1.00   0.02  0.00  0.00  0.98  0.00  0.00  0.00  0.98  0.00
  WS02006112WS02006115    1.00   0.02  0.00  0.00  0.97  0.00  0.00  0.00  0.00  0.00
  WS02006113WS02006111    1.00   0.02  0.00  0.00  0.00  0.98  0.00  0.00  0.11  0.00
  WS02006115WS02006116    1.00   0.02  0.00  0.00  0.97  0.00  0.00  0.01  0.00  0.00
  WS02006116WS02004401    1.00   0.02  0.00  0.00  0.98  0.00  0.00  0.00  0.00  0.00
  WS02006228WS02006109    1.00   0.00  0.00  0.00  1.00  0.00  0.00  0.00  0.00  0.00
  WS02006229WS02006228    1.00   0.00  0.00  0.00  0.99  0.00  0.00  0.01  0.00  0.00
  WS02006230WS02006229    1.00   0.00  0.00  0.00  0.99  0.00  0.00  0.01  0.00  0.00
  WS02006231WS02006230    1.00   0.00  0.00  0.00  0.22  0.00  0.77  0.00  0.00  0.00
  WS02006232WS02006231    1.00   0.00  0.00  0.00  0.99  0.00  0.00  0.00  0.00  0.00
  WS02006234WS02006232    1.00   0.00  0.00  0.00  1.00  0.00  0.00  0.00  0.22  0.00
  WS02006235WS02006234    1.00   0.00  0.00  0.00  0.56  0.00  0.44  0.00  0.00  0.00
  WS02006238WS02006235    1.00   0.00  0.00  0.00  1.00  0.00  0.00  0.00  0.00  0.00
  WS02006239WS02006238    1.00   0.00  0.00  0.00  1.00  0.00  0.00  0.00  0.35  0.00
  WS02006240WS02006239    1.00   0.00  0.00  0.00  0.41  0.00  0.00  0.58  0.01  0.00
  WS02006242WS02006240    1.00   0.00  0.00  0.00  0.99  0.00  0.01  0.00  0.00  0.00
  WS02006243WS02006242    1.00   0.00  0.00  0.00  0.99  0.00  0.00  0.00  0.65  0.00
  WS02006245WS02006243    1.00   0.00  0.00  0.00  0.77  0.00  0.00  0.23  0.00  0.00
  WS02006247WS02006245    1.00   0.00  0.00  0.00  0.98  0.00  0.00  0.02  0.00  0.00
  WS02006248WS02006247    1.00   0.00  0.00  0.00  0.99  0.00  0.00  0.01  0.60  0.00
  WS02006249WS02006248    1.00   0.00  0.00  0.00  0.36  0.00  0.63  0.00  0.00  0.00
  WS02006251WS02006249    1.00   0.00  0.00  0.00  1.00  0.00  0.00  0.00  0.59  0.00
  WS02006252WS02006251    1.00   0.00  0.59  0.00  0.04  0.00  0.37  0.00  0.01  0.00
  WS02006256WS02006235    1.00   0.00  0.00  0.00  1.00  0.00  0.00  0.00  0.00  0.00
  WSF200WS02003060        1.00   0.00  0.10  0.00  0.53  0.36  0.00  0.00  0.61  0.00
  YS02001580YS02001583    1.00   0.20  0.55  0.00  0.25  0.00  0.00  0.00  0.64  0.00
  YS02001583YS02001586    1.00   0.40  0.29  0.00  0.30  0.00  0.00  0.00  0.64  0.00
  YS02001586YS02001590    1.00   0.13  0.00  0.00  0.46  0.04  0.00  0.38  0.33  0.00
  YS02001590YS02001593    1.00   0.13  0.01  0.00  0.18  0.00  0.69  0.00  0.00  0.00
  YS02001593YS02001596    1.00   0.13  0.00  0.00  0.19  0.01  0.00  0.67  0.02  0.00
  YS02001596YS02001600    1.00   0.13  0.00  0.00  0.24  0.01  0.00  0.62  0.03  0.00
  YS02001600YS02001601    1.00   0.13  0.01  0.00  0.86  0.00  0.00  0.00  0.58  0.00
  YS02001601YS02001602    1.00   0.13  0.01  0.00  0.87  0.00  0.00  0.00  0.00  0.00
  YS02001602YS02001605    1.00   0.13  0.00  0.00  0.87  0.00  0.00  0.00  0.00  0.00
  YS02001605YS02001607    1.00   0.13  0.00  0.00  0.87  0.00  0.00  0.00  0.00  0.00
  YS02001607YS02001610    1.00   0.13  0.00  0.00  0.86  0.00  0.00  0.00  0.01  0.00
  YS02001610YS02001613    1.00   0.13  0.00  0.00  0.87  0.00  0.00  0.00  0.00  0.00
  YS02001613YS02001616    1.00   0.13  0.00  0.00  0.87  0.00  0.00  0.00  0.00  0.00
  YS02001616YS02001619    1.00   0.13  0.00  0.00  0.87  0.00  0.00  0.00  0.00  0.00
  YS02001619YS02001622    1.00   0.13  0.00  0.00  0.87  0.00  0.00  0.00  0.27  0.00
  YS02001622YS02001625    1.00   0.13  0.00  0.00  0.87  0.00  0.00  0.00  0.03  0.00
  YS02001625YS02001629    1.00   0.13  0.04  0.00  0.21  0.00  0.63  0.00  0.00  0.00
  YS02001629YS02163301    1.00   0.14  0.01  0.00  0.85  0.00  0.00  0.00  0.00  0.00
  YS02001633YS02163601    1.00   0.00  0.01  0.00  0.99  0.00  0.00  0.00  0.14  0.00
  YS02001641YS02001644    1.00   0.00  0.01  0.00  0.99  0.00  0.00  0.00  0.00  0.00
  YS02001644YS02001647    1.00   0.00  0.16  0.00  0.84  0.00  0.00  0.00  0.00  0.00
  YS02001647YS02001649    1.00   0.00  0.16  0.00  0.59  0.26  0.00  0.00  0.55  0.00
  YS02001649YS02001757    1.00   0.00  0.00  0.00  0.73  0.27  0.00  0.00  0.42  0.00
  YS02001652YS02001649    1.00   0.00  0.00  0.00  0.97  0.03  0.00  0.00  0.71  0.00
  YS02001655YS02001652    1.00   0.00  0.00  0.00  0.23  0.01  0.00  0.76  0.04  0.00
  YS02001658YS02001655    1.00   0.00  0.14  0.00  0.72  0.15  0.00  0.00  0.62  0.00
  YS02001661YS02001658    1.00   0.14  0.00  0.00  0.55  0.31  0.00  0.00  0.66  0.00
  YS02001664YS02001661    1.00   0.13  0.00  0.00  0.77  0.10  0.00  0.00  0.83  0.00
  YS02001745YS02001748    1.00   0.00  0.00  0.00  0.16  0.01  0.00  0.83  0.06  0.00
  YS02001748YS02001751    1.00   0.00  0.00  0.00  0.87  0.13  0.00  0.00  0.74  0.00
  YS02001751YS02001754    1.00   0.00  0.00  0.00  0.22  0.00  0.00  0.78  0.02  0.00
  YS02001754YS02001757    1.00   0.00  0.00  0.00  1.00  0.00  0.00  0.00  0.77  0.00
  YS02001757CaochengTiaoxuchi    1.00   0.00  0.00  0.00  0.95  0.05  0.00  0.00  0.74  0.00
  YS02001759YS02001757    1.00   0.00  0.00  0.00  0.98  0.02  0.00  0.00  0.59  0.00
  YS02001762YS02001759    1.00   0.00  0.00  0.00  1.00  0.00  0.00  0.00  0.03  0.00
  YS02001765YS02001762    1.00   0.00  0.00  0.00  1.00  0.00  0.00  0.00  0.70  0.00
  YS02001767YS02001765    1.00   0.00  0.00  0.00  1.00  0.00  0.00  0.00  0.00  0.00
  YS02001770YS02001767    1.00   0.00  0.00  0.00  1.00  0.00  0.00  0.00  0.00  0.00
  YS02001774YS02001770    1.00   0.00  0.13  0.00  0.71  0.00  0.16  0.00  0.02  0.00
  YS02001779YS02001774    1.00   0.00  0.00  0.00  1.00  0.00  0.00  0.00  0.73  0.00
  YS02001783YS02001784    1.00   0.00  0.16  0.00  0.84  0.00  0.00  0.00  0.54  0.00
  YS02001784YS02001785    1.00   0.00  0.00  0.00  1.00  0.00  0.00  0.00  0.15  0.00
  YS02001786YS02001788    1.00   0.00  0.00  0.00  0.80  0.20  0.00  0.00  0.00  0.00
  YS02001788YS02001790    1.00   0.00  0.00  0.00  0.20  0.80  0.00  0.00  0.78  0.00
  YS02001790YS02001791    1.00   0.00  0.00  0.00  0.01  0.99  0.00  0.00  0.15  0.00
  YS02001791YS02001793    1.00   0.00  0.00  0.00  0.00  1.00  0.00  0.00  0.01  0.00
  YS02001793JiankangQianchi    1.00   0.00  0.00  0.00  0.95  0.05  0.00  0.00  0.95  0.00
  YS02001882YS02001884    1.00   0.14  0.01  0.00  0.85  0.00  0.00  0.00  0.00  0.00
  YS02001884YS02001887    1.00   0.06  0.05  0.00  0.89  0.00  0.00  0.00  0.00  0.00
  YS02001887YS02001890    1.00   0.00  0.00  0.00  0.97  0.00  0.03  0.00  0.00  0.00
  YS02001890YS02001895    1.00   0.00  0.15  0.00  0.85  0.00  0.00  0.00  0.00  0.00
  YS02001895YS02001898    1.00   0.15  0.00  0.00  0.83  0.00  0.01  0.00  0.00  0.00
  YS02001898YS02001901    1.00   0.15  0.00  0.00  0.85  0.00  0.00  0.00  0.01  0.00
  YS02001901YS02001904    1.00   0.15  0.00  0.00  0.85  0.00  0.00  0.00  0.00  0.00
  YS02001904YS02001907    1.00   0.00  0.15  0.00  0.85  0.00  0.00  0.00  0.00  0.00
  YS02001907YS02006553    1.00   0.00  0.02  0.00  0.98  0.00  0.00  0.00  0.00  0.00
  YS02001910YS02001907    1.00   0.00  0.00  0.00  0.97  0.00  0.00  0.03  0.11  0.00
  YS02001915YS02001910    1.00   0.00  0.00  0.00  0.97  0.03  0.00  0.00  0.13  0.00
  YS02001918YS02001915    1.00   0.00  0.01  0.00  0.98  0.02  0.00  0.00  0.70  0.00
  YS02001920YS02001918    1.00   0.00  0.01  0.00  0.99  0.00  0.00  0.00  0.00  0.00
  YS02001923YS02001920    1.00   0.00  0.00  0.00  1.00  0.00  0.00  0.00  0.89  0.00
  YS02001926YS02001923    1.00   0.00  0.07  0.00  0.09  0.00  0.83  0.00  0.00  0.00
  YS02001929YS02001926    1.00   0.00  0.13  0.00  0.87  0.00  0.00  0.00  0.79  0.00
  YS02006553YS02006556    1.00   0.01  0.00  0.00  0.99  0.00  0.00  0.00  0.03  0.00
  YS02006556YS02006558    1.00   0.00  0.00  0.00  1.00  0.00  0.00  0.00  0.00  0.00
  YS02006558YS02006561    1.00   0.16  0.00  0.00  0.09  0.75  0.00  0.00  0.16  0.00
  YS02006561YS02001783    1.00   0.16  0.00  0.00  0.13  0.71  0.00  0.00  0.65  0.00
  YS02163301YS02001633    1.00   0.00  0.14  0.00  0.86  0.00  0.00  0.00  0.00  0.00
  YS02163601YS02164001    1.00   0.00  0.08  0.00  0.92  0.00  0.00  0.00  0.00  0.00
  YS02164001YS02001641    1.00   0.01  0.07  0.00  0.92  0.00  0.00  0.00  0.05  0.00
  
  
  *************************
  Conduit Surcharge Summary
  *************************
  
  ----------------------------------------------------------------------------
                                                           Hours        Hours 
                         --------- Hours Full --------   Above Full   Capacity
  Conduit                Both Ends  Upstream  Dnstream   Normal Flow   Limited
  ----------------------------------------------------------------------------
  WS02003072WS02003073        0.01      0.01      0.01      0.42         0.01
  WS02004404WS02004405        0.01      0.01      0.01      2.48         0.01
  WS02004405WS02004406        0.01      0.01      0.01      0.10         0.01
  WS02006109WS02006110        0.18      0.18      1.77      0.23         0.01
  WS02006110WS02006113        0.01      0.01      1.76      0.01         0.01
  WS02006111WS02006112        0.01      0.01      1.92      0.01         0.01
  WS02006112WS02006115        0.01      0.01      0.14      0.01         0.01
  WS02006228WS02006109        1.75      1.77      1.75      2.01         1.75
  WS02006229WS02006228        1.75      1.75      1.75      1.87         1.74
  WS02006230WS02006229        1.79      1.84      1.79      2.87         1.79
  WS02006231WS02006230        0.19      0.19      0.28      2.70         0.01
  WS02006232WS02006231        0.26      0.26      1.77      0.30         0.01
  WS02006234WS02006232        1.71      1.71      1.77      0.29         0.29
  WS02006235WS02006234        0.50      0.50      1.73      2.57         0.01
  WS02006238WS02006235        1.74      1.74      1.77      0.01         0.01
  WS02006239WS02006238        1.75      1.76      1.76      1.82         1.67
  WS02006240WS02006239        1.73      1.75      1.73      1.83         1.62
  WS02006242WS02006240        1.74      1.74      1.77      1.94         0.01
  WS02006243WS02006242        1.74      1.74      1.76      0.01         0.03
  WS02006245WS02006243        1.74      1.74      1.74      1.66         1.53
  WS02006247WS02006245        1.74      1.74      1.74      2.40         1.73
  WS02006248WS02006247        1.73      1.73      1.74      0.01         0.03
  WS02006249WS02006248        1.73      1.73      1.73      2.36         0.01
  WS02006251WS02006249        1.73      1.73      1.73      1.92         1.67
  WS02006252WS02006251        1.97      1.97      2.03      1.98         0.01
  WS02006256WS02006235        2.60      2.63      5.58      0.38         0.01
  YS02001580YS02001583        0.99      0.99      1.06      0.01         0.01
  YS02001583YS02001586        1.00      1.00      1.16      0.01         0.01
  YS02001586YS02001590        1.16      1.16      1.25      0.01         0.01
  YS02001590YS02001593        1.25      1.25      1.28      1.32         0.01
  YS02001593YS02001596        1.27      1.27      1.39      0.01         0.01
  YS02001596YS02001600        1.45      1.45      1.54      0.01         0.01
  YS02001600YS02001601        1.58      1.58      1.78      0.01         0.01
  YS02001601YS02001602        1.70      1.70      1.81      1.54         0.01
  YS02001602YS02001605        1.67      1.67      1.70      2.49         0.01
  YS02001605YS02001607        1.64      1.67      1.64      1.75         1.64
  YS02001607YS02001610        1.26      1.26      1.29      0.01         0.01
  YS02001610YS02001613        1.25      1.25      1.29      0.01         0.01
  YS02001613YS02001616        1.19      1.19      1.25      0.01         0.01
  YS02001616YS02001619        1.18      1.18      1.19      0.20         0.20
  YS02001619YS02001622        1.18      1.18      1.18      1.22         1.11
  YS02001622YS02001625        1.18      1.18      1.40      0.01         0.01
  YS02001625YS02001629        1.12      1.12      1.40      0.01         0.01
  YS02001629YS02163301        1.40      1.40      1.41      0.15         0.19
  YS02001633YS02163601        1.43      1.43      1.46      0.41         0.37
  YS02001641YS02001644        1.35      1.38      1.35      1.83         1.33
  YS02001644YS02001647        1.09      1.09      1.35      0.05         0.01
  YS02001647YS02001649        1.09      1.09      1.26      0.01         0.01
  YS02001649YS02001757        1.25      1.26      1.33      0.10         0.07
  YS02001652YS02001649        1.03      1.03      1.26      0.01         0.01
  YS02001655YS02001652        0.72      0.72      1.00      0.01         0.01
  YS02001658YS02001655        0.42      0.42      0.72      0.01         0.01
  YS02001661YS02001658        0.20      0.20      0.42      0.01         0.01
  YS02001664YS02001661        0.04      0.04      0.24      0.01         0.01
  YS02001745YS02001748        0.02      0.02      0.33      0.01         0.01
  YS02001748YS02001751        0.38      0.38      0.55      0.01         0.01
  YS02001751YS02001754        0.55      0.55      0.88      0.01         0.01
  YS02001754YS02001757        0.94      0.94      1.33      0.01         0.01
  YS02001757CaochengTiaoxuchi        1.17      1.33      1.64      0.58         0.37
  YS02001759YS02001757        1.23      1.23      1.33      0.18         0.19
  YS02001762YS02001759        1.19      1.19      1.23      0.01         0.02
  YS02001765YS02001762        1.13      1.13      1.19      0.01         0.01
  YS02001767YS02001765        1.09      1.09      1.13      0.01         0.02
  YS02001770YS02001767        1.09      1.09      1.09      0.78         0.71
  YS02001774YS02001770        1.05      1.05      1.16      0.01         0.01
  YS02001779YS02001774        0.85      0.85      1.16      0.01         0.01
  YS02001783YS02001784        0.78      0.81      0.78      0.99         0.78
  YS02001784YS02001785        0.65      0.78      0.65      1.34         0.65
  YS02001786YS02001788        0.01      0.65      0.01      1.13         0.01
  YS02001790YS02001791        0.01      0.01      0.01      0.77         0.01
  YS02001793JiankangQianchi        0.01      0.01      7.20      0.01         0.01
  YS02001882YS02001884        0.74      0.74      0.75      0.01         0.01
  YS02001884YS02001887        0.78      0.78      0.80      0.01         0.01
  YS02001887YS02001890        0.82      0.82      0.83      0.26         0.01
  YS02001890YS02001895        0.73      0.73      0.85      0.01         0.01
  YS02001895YS02001898        0.72      0.72      0.73      0.01         0.01
  YS02001898YS02001901        0.73      0.73      0.78      0.01         0.01
  YS02001901YS02001904        0.77      0.77      0.78      0.01         0.01
  YS02001904YS02001907        0.77      0.77      1.10      0.01         0.01
  YS02001907YS02006553        1.35      1.35      1.45      0.01         0.01
  YS02001910YS02001907        0.85      0.85      1.07      0.16         0.16
  YS02001915YS02001910        0.74      0.74      0.85      0.01         0.01
  YS02001918YS02001915        0.64      0.64      0.74      0.01         0.01
  YS02001920YS02001918        0.64      0.64      0.66      0.01         0.01
  YS02001923YS02001920        0.59      0.59      0.66      0.01         0.01
  YS02001926YS02001923        0.28      0.28      0.31      0.11         0.01
  YS02001929YS02001926        0.18      0.18      0.31      0.01         0.01
  YS02006553YS02006556        0.96      0.96      1.09      0.01         0.01
  YS02006556YS02006558        1.03      1.03      1.13      0.01         0.01
  YS02006558YS02006561        0.68      0.95      0.68      1.26         0.68
  YS02006561YS02001783        0.60      0.60      0.81      0.01         0.01
  YS02163301YS02001633        1.41      1.41      1.44      0.01         0.01
  YS02163601YS02164001        1.38      1.38      1.46      0.08         0.01
  YS02164001YS02001641        1.38      1.38      1.38      1.03         0.99
  
  
  ***************
  Pumping Summary
  ***************
  
  ---------------------------------------------------------------------------------------------------------
                                                  Min       Avg       Max     Total     Power    % Time Off
                        Percent   Number of      Flow      Flow      Flow    Volume     Usage    Pump Curve
  Pump                 Utilized   Start-Ups       LPS       LPS       LPS  10^6 ltr     Kw-hr    Low   High
  ---------------------------------------------------------------------------------------------------------
  CC-R1                   31.39          38      0.00    683.00    683.00     6.175    112.91    0.0   35.1
  CC-R2                   28.26          40      0.00    683.00    683.00     5.559    102.00    0.0   37.0
  CC-S1                   31.27          39      0.00    200.00    200.00     1.801     10.11    0.0    0.0
  CC-S2                   25.00           7      0.00    200.00    200.00     1.440      7.64    0.0    0.0
  JK-R1                    1.28           7      0.00   1000.00   1000.00     0.368      3.26    0.0    0.0
  JK-R2                   16.27          47      0.00   1000.00   1000.00     4.685     42.10    0.0    0.0
  JK-S                     4.82          13      0.00    300.00    300.00     0.416      6.58    0.0    0.0
  

  Analysis begun on:  Mon Feb 24 09:45:25 2025
  Analysis ended on:  Mon Feb 24 09:45:26 2025
  Total elapsed time: 00:00:01