
  EPA STORM WATER MANAGEMENT MODEL - VERSION 5.2 (Build 5.2.4)
  PYSWMM TOOLKIT API - VERSION v1.0 (2023-11-27)
  ------------------------------------------------------------

  WARNING 04: minimum elevation drop used for Conduit WS02004404WS02004405
  WARNING 03: negative offset ignored for Link YS02001904YS02001907
  
  ****************
  Analysis Options
  ****************
  Flow Units ............... LPS
  Process Models:
    Rainfall/Runoff ........ YES
    RDII ................... NO
    Snowmelt ............... NO
    Groundwater ............ NO
    Flow Routing ........... YES
    Ponding Allowed ........ NO
    Water Quality .......... NO
  Infiltration Method ...... HORTON
  Flow Routing Method ...... DYNWAVE
  Surcharge Method ......... EXTRAN
  Starting Date ............ 08/28/2015 08:00:00
  Ending Date .............. 08/28/2015 16:00:00
  Antecedent Dry Days ...... 8.0
  Report Time Step ......... 00:01:00
  Wet Time Step ............ 00:01:00
  Dry Time Step ............ 00:01:00
  Routing Time Step ........ 30.00 sec
  Variable Time Step ....... YES
  Maximum Trials ........... 8
  Number of Threads ........ 4
  Head Tolerance ........... 0.001500 m
  
  
  **************************        Volume         Depth
  Runoff Quantity Continuity     hectare-m            mm
  **************************     ---------       -------
  Total Precipitation ......         2.125        64.074
  Evaporation Loss .........         0.000         0.000
  Infiltration Loss ........         0.100         3.002
  Surface Runoff ...........         1.993        60.093
  Final Storage ............         0.033         0.995
  Continuity Error (%) .....        -0.024
  
  
  **************************        Volume        Volume
  Flow Routing Continuity        hectare-m      10^6 ltr
  **************************     ---------     ---------
  Dry Weather Inflow .......         0.025         0.251
  Wet Weather Inflow .......         1.994        19.939
  Groundwater Inflow .......         0.000         0.000
  RDII Inflow ..............         0.000         0.000
  External Inflow ..........         0.083         0.834
  External Outflow .........         1.615        16.147
  Flooding Loss ............         0.556         5.563
  Evaporation Loss .........         0.000         0.000
  Exfiltration Loss ........         0.000         0.000
  Initial Stored Volume ....         0.243         2.431
  Final Stored Volume ......         0.181         1.809
  Continuity Error (%) .....        -0.275
  
  
  *************************
  Highest Continuity Errors
  *************************
  Node YS02001884 (4.89%)
  Node YS02001583 (-4.48%)
  Node WS02006256 (-3.23%)
  
  
  ***************************
  Time-Step Critical Elements
  ***************************
  Link WS02006252WS02006251 (48.59%)
  Link WS02004404WS02004405 (19.42%)
  Link WS02006238WS02006235 (7.53%)
  Link YS02001791YS02001793 (5.00%)
  Link YS02006556YS02006558 (4.32%)
  
  
  ********************************
  Highest Flow Instability Indexes
  ********************************
  Link WS02006113WS02006111 (33)
  Link WS02006256WS02006235 (13)
  Link WS02006111WS02006112 (13)
  Link YS02006558YS02006561 (11)
  Link YS02001882YS02001884 (9)
  
  
  *********************************
  Most Frequent Nonconverging Nodes
  *********************************
  Node CC-1 (9.91%)
  Node CC-2 (9.91%)
  Node JK-1 (9.91%)
  Node JK-2 (9.91%)
  Node WSC (9.91%)
  
  
  *************************
  Routing Time Step Summary
  *************************
  Minimum Time Step           :     0.05 sec
  Average Time Step           :     2.42 sec
  Maximum Time Step           :     6.43 sec
  % of Time in Steady State   :     0.00
  Average Iterations per Step :     2.94
  % of Steps Not Converging   :     9.91
  Time Step Frequencies       :
     30.000 - 13.228 sec      :     0.00 %
     13.228 -  5.833 sec      :    17.70 %
      5.833 -  2.572 sec      :    19.36 %
      2.572 -  1.134 sec      :    10.35 %
      1.134 -  0.500 sec      :    52.59 %
  
  
  ***************************
  Subcatchment Runoff Summary
  ***************************
  
  ------------------------------------------------------------------------------------------------------------------------------
                            Total      Total      Total      Total     Imperv       Perv      Total       Total     Peak  Runoff
                           Precip      Runon       Evap      Infil     Runoff     Runoff     Runoff      Runoff   Runoff   Coeff
  Subcatchment                 mm         mm         mm         mm         mm         mm         mm    10^6 ltr      LPS
  ------------------------------------------------------------------------------------------------------------------------------
  sub60                     64.07       0.00       0.00       1.79      55.18       5.90      61.09        0.80   600.83   0.953
  sub61                     64.07       0.00       0.00       2.60      52.05       8.30      60.35        1.11   835.23   0.942
  sub62                     64.07       0.00       0.00       1.19      57.66       3.94      61.60        1.69  1164.74   0.961
  sub63                     64.07       0.00       0.00       4.82      44.52      13.77      58.29        1.32   938.51   0.910
  sub64                     64.07       0.00       0.00       2.43      53.26       7.18      60.44        1.45   956.86   0.943
  sub65                     64.07       0.00       0.00       2.10      54.49       6.23      60.72        1.67  1069.55   0.948
  sub66                     64.07       0.00       0.00       6.00      44.42      12.58      57.00        2.66  1402.42   0.890
  sub67                     64.07       0.00       0.00       1.15      57.71       3.98      61.69        1.15   905.45   0.963
  sub68                     64.07       0.00       0.00       2.15      53.92       6.82      60.74        1.67  1197.71   0.948
  sub69                     64.07       0.00       0.00       1.92      54.35       7.69      62.04        2.30  1421.33   0.968
  sub70                     64.07       0.00       0.00       6.49      42.12      15.30      57.43        1.66   786.42   0.896
  sub71                     64.07       0.00       0.00       1.23      57.62       3.90      61.52        1.61  1033.62   0.960
  sub72                     64.07       0.00       0.00       1.09      58.19       3.40      61.58        0.85   499.51   0.961
  
  
  ******************
  Node Depth Summary
  ******************
  
  ---------------------------------------------------------------------------------
                                 Average  Maximum  Maximum  Time of Max    Reported
                                   Depth    Depth      HGL   Occurrence   Max Depth
  Node                 Type       Meters   Meters   Meters  days hr:min      Meters
  ---------------------------------------------------------------------------------
  WS02003060           JUNCTION     0.17     0.35     5.29     0  02:35        0.35
  WS02003066           JUNCTION     0.15     0.28     5.83     0  02:34        0.28
  WS02003067           JUNCTION     0.41     0.67     5.99     0  02:34        0.67
  WS02003069           JUNCTION     0.19     0.39     4.98     0  02:35        0.39
  WS02003072           JUNCTION     0.25     0.46     4.84     0  02:36        0.46
  WS02003073           JUNCTION     0.13     0.27     4.34     0  02:37        0.27
  WS02004401           JUNCTION     0.47     0.81     6.81     0  02:31        0.81
  WS02004402           JUNCTION     0.51     0.84     6.80     0  02:31        0.84
  WS02004403           JUNCTION     0.53     0.86     6.79     0  02:31        0.86
  WS02004404           JUNCTION     0.60     0.93     6.78     0  02:31        0.93
  WS02004405           JUNCTION     0.60     0.93     6.78     0  02:31        0.93
  WS02004406           JUNCTION     0.61     0.93     6.76     0  02:32        0.93
  WS02004407           JUNCTION     0.12     0.28     6.60     0  02:32        0.28
  WS02004409           JUNCTION     0.28     0.60     6.37     0  02:33        0.60
  WS02004410           JUNCTION     0.30     0.62     6.34     0  02:33        0.62
  WS02004411           JUNCTION     0.33     0.63     6.31     0  02:33        0.63
  WS02004412           JUNCTION     0.35     0.65     6.29     0  02:34        0.65
  WS02004413           JUNCTION     0.50     0.81     6.28     0  02:34        0.81
  WS02006109           JUNCTION     0.54     1.06     7.67     0  02:26        0.99
  WS02006110           JUNCTION     0.55     1.03     7.61     0  02:26        0.94
  WS02006111           JUNCTION     0.13     0.29     6.99     0  02:28        0.29
  WS02006112           JUNCTION     0.62     1.00     6.88     0  02:30        1.00
  WS02006113           JUNCTION     0.20     0.46     7.35     0  02:28        0.45
  WS02006115           JUNCTION     0.36     0.71     6.85     0  02:31        0.71
  WS02006116           JUNCTION     0.44     0.79     6.83     0  02:31        0.79
  WS02006228           JUNCTION     0.52     1.09     7.74     0  02:26        1.03
  WS02006229           JUNCTION     0.49     1.08     7.77     0  02:26        1.02
  WS02006230           JUNCTION     0.47     1.20     7.94     0  02:26        1.11
  WS02006231           JUNCTION     0.31     0.93     8.05     0  02:26        0.86
  WS02006232           JUNCTION     0.42     1.11     8.15     0  02:26        1.05
  WS02006234           JUNCTION     0.33     1.11     8.27     0  02:26        1.06
  WS02006235           JUNCTION     0.36     1.20     8.36     0  02:26        1.15
  WS02006238           JUNCTION     0.39     1.23     8.37     0  02:26        1.18
  WS02006239           JUNCTION     0.35     1.29     8.50     0  02:25        1.16
  WS02006240           JUNCTION     0.33     1.18     8.47     0  02:26        1.12
  WS02006242           JUNCTION     0.40     1.25     8.52     0  02:26        1.22
  WS02006243           JUNCTION     0.31     1.19     8.61     0  02:25        1.11
  WS02006245           JUNCTION     0.32     1.13     8.62     0  02:26        1.11
  WS02006247           JUNCTION     0.34     1.15     8.65     0  02:26        1.12
  WS02006248           JUNCTION     0.30     1.09     8.68     0  02:28        1.09
  WS02006249           JUNCTION     0.34     1.09     8.69     0  02:26        1.09
  WS02006251           JUNCTION     0.34     1.34     9.01     0  02:26        1.11
  WS02006252           JUNCTION     0.28     1.50     9.74     0  00:00        0.67
  WS02006256           JUNCTION     0.61     2.35     9.28     0  00:00        2.35
  WSF200               JUNCTION     0.12     0.27     5.50     0  02:34        0.27
  YS02001580           JUNCTION     0.15     1.05     9.59     0  02:03        0.77
  YS02001583           JUNCTION     0.18     1.14     9.64     0  02:03        0.82
  YS02001586           JUNCTION     0.29     1.13     9.30     0  02:03        1.13
  YS02001590           JUNCTION     0.41     1.38     9.25     0  02:03        1.38
  YS02001593           JUNCTION     0.33     1.32     9.18     0  02:03        1.29
  YS02001596           JUNCTION     0.45     1.68     9.10     0  02:03        1.65
  YS02001600           JUNCTION     0.55     1.87     9.00     0  02:03        1.87
  YS02001601           JUNCTION     0.75     2.06     8.90     0  02:03        2.06
  YS02001602           JUNCTION     0.65     1.87     8.77     0  02:03        1.87
  YS02001605           JUNCTION     0.60     1.78     8.68     0  02:03        1.78
  YS02001607           JUNCTION     0.56     1.68     8.53     0  02:03        1.65
  YS02001610           JUNCTION     0.60     1.68     8.48     0  02:03        1.68
  YS02001613           JUNCTION     0.56     1.69     8.53     0  02:03        1.65
  YS02001616           JUNCTION     0.50     1.61     8.52     0  02:03        1.60
  YS02001619           JUNCTION     0.47     1.61     8.54     0  02:03        1.60
  YS02001622           JUNCTION     0.46     1.61     8.51     0  02:03        1.58
  YS02001625           JUNCTION     0.70     1.78     8.38     0  02:03        1.78
  YS02001629           JUNCTION     0.61     1.85     8.40     0  02:03        1.85
  YS02001633           JUNCTION     0.68     2.05     8.50     0  02:08        2.03
  YS02001641           JUNCTION     0.64     1.97     8.41     0  02:08        1.96
  YS02001644           JUNCTION     0.63     1.92     8.35     0  02:08        1.92
  YS02001647           JUNCTION     0.40     1.83     8.44     0  02:09        1.73
  YS02001649           JUNCTION     0.45     2.05     8.44     0  02:09        1.94
  YS02001652           JUNCTION     0.32     2.16     8.76     0  02:09        1.78
  YS02001655           JUNCTION     0.24     2.20     9.05     0  02:09        1.58
  YS02001658           JUNCTION     0.18     2.30     9.44     0  02:09        1.34
  YS02001661           JUNCTION     0.20     1.86     9.27     0  02:10        1.13
  YS02001664           JUNCTION     0.09     0.56     8.49     0  02:13        0.55
  YS02001745           JUNCTION     0.10     0.78     8.30     0  02:12        0.76
  YS02001748           JUNCTION     0.16     2.27     9.35     0  02:10        1.20
  YS02001751           JUNCTION     0.20     2.20     9.08     0  02:10        1.38
  YS02001754           JUNCTION     0.26     2.11     8.72     0  02:10        1.63
  YS02001757           JUNCTION     0.44     2.08     8.34     0  02:10        1.96
  YS02001759           JUNCTION     0.39     2.11     8.47     0  02:10        1.97
  YS02001762           JUNCTION     0.37     2.07     8.47     0  02:10        1.95
  YS02001765           JUNCTION     0.35     2.05     8.50     0  02:10        1.92
  YS02001767           JUNCTION     0.35     2.01     8.50     0  02:10        1.90
  YS02001770           JUNCTION     0.37     1.95     8.44     0  02:10        1.92
  YS02001774           JUNCTION     0.43     2.00     8.43     0  02:10        1.98
  YS02001779           JUNCTION     0.25     1.68     8.37     0  02:08        1.68
  YS02001783           JUNCTION     0.35     1.29     7.44     0  02:07        1.23
  YS02001784           JUNCTION     0.35     1.17     7.24     0  02:07        1.12
  YS02001786           JUNCTION     0.29     0.97     7.00     0  02:07        0.87
  YS02001788           JUNCTION     0.21     0.62     6.60     0  02:15        0.62
  YS02001790           JUNCTION     0.25     0.72     6.37     0  02:18        0.72
  YS02001791           JUNCTION     0.16     0.44     5.91     0  02:09        0.43
  YS02001793           JUNCTION     0.08     0.27     5.10     0  02:25        0.26
  YS02001882           JUNCTION     0.43     1.83     8.55     0  02:05        1.65
  YS02001884           JUNCTION     0.51     1.90     8.51     0  02:05        1.75
  YS02001887           JUNCTION     0.59     1.89     8.43     0  02:05        1.83
  YS02001890           JUNCTION     0.61     1.81     8.32     0  02:05        1.81
  YS02001895           JUNCTION     0.40     1.57     8.31     0  02:11        1.56
  YS02001898           JUNCTION     0.40     1.56     8.30     0  02:07        1.55
  YS02001901           JUNCTION     0.51     1.68     8.29     0  02:21        1.67
  YS02001904           JUNCTION     0.49     1.64     8.27     0  02:07        1.63
  YS02001907           JUNCTION     0.79     1.96     8.25     0  02:07        1.96
  YS02001910           JUNCTION     0.61     2.01     8.52     0  02:07        1.94
  YS02001915           JUNCTION     0.44     2.00     8.72     0  02:05        1.88
  YS02001918           JUNCTION     0.26     1.81     8.88     0  02:07        1.81
  YS02001920           JUNCTION     0.34     2.12     9.13     0  02:07        2.01
  YS02001923           JUNCTION     0.21     2.03     9.29     0  02:07        1.92
  YS02001926           JUNCTION     0.23     1.90     9.35     0  02:07        1.87
  YS02001929           JUNCTION     0.14     1.78     9.47     0  02:07        1.78
  YS02006553           JUNCTION     0.79     1.98     8.26     0  02:11        1.97
  YS02006556           JUNCTION     0.76     1.96     8.27     0  02:11        1.95
  YS02006558           JUNCTION     0.81     2.01     8.28     0  02:11        2.01
  YS02006561           JUNCTION     0.22     1.03     7.69     0  02:07        0.90
  YS02163301           JUNCTION     0.63     1.93     8.45     0  02:08        1.92
  YS02163601           JUNCTION     0.70     2.07     8.47     0  02:08        2.06
  YS02164001           JUNCTION     0.63     1.99     8.44     0  02:08        1.98
  CC-1                 OUTFALL      0.00     0.00     0.00     0  00:00        0.00
  CC-2                 OUTFALL      0.00     0.00     0.00     0  00:00        0.00
  JK-1                 OUTFALL      0.00     0.00     0.00     0  00:00        0.00
  JK-2                 OUTFALL      0.00     0.00     0.00     0  00:00        0.00
  WSC                  OUTFALL      0.13     0.27     0.94     0  02:37        0.27
  CC-storage           STORAGE      0.68     1.34     6.84     0  02:40        1.34
  JK-storage           STORAGE      1.56     4.00     4.80     0  02:25        4.00
  
  
  *******************
  Node Inflow Summary
  *******************
  
  -------------------------------------------------------------------------------------------------
                                  Maximum  Maximum                  Lateral       Total        Flow
                                  Lateral    Total  Time of Max      Inflow      Inflow     Balance
                                   Inflow   Inflow   Occurrence      Volume      Volume       Error
  Node                 Type           LPS      LPS  days hr:min    10^6 ltr    10^6 ltr     Percent
  -------------------------------------------------------------------------------------------------
  WS02003060           JUNCTION     16.53   474.01     0  02:34       0.476        2.87       0.070
  WS02003066           JUNCTION      0.00   455.90     0  02:34           0         2.4       0.052
  WS02003067           JUNCTION      0.00   455.00     0  02:34           0         2.4       0.166
  WS02003069           JUNCTION      0.32   474.71     0  02:35     0.00922        2.88       0.122
  WS02003072           JUNCTION      0.00   472.41     0  02:36           0        2.88       0.221
  WS02003073           JUNCTION      1.82   473.02     0  02:36      0.0524        2.92       0.172
  WS02004401           JUNCTION      0.00   507.19     0  02:31           0         2.5       0.400
  WS02004402           JUNCTION      0.00   499.20     0  02:31           0        2.49       0.407
  WS02004403           JUNCTION      0.00   498.19     0  02:31           0        2.48       0.401
  WS02004404           JUNCTION      0.16   495.97     0  02:31     0.00467        2.48       0.350
  WS02004405           JUNCTION      0.04   494.63     0  02:31      0.0011        2.47       0.482
  WS02004406           JUNCTION      0.00   494.68     0  02:32           0        2.46       0.839
  WS02004407           JUNCTION      0.00   493.08     0  02:32           0        2.44       0.038
  WS02004409           JUNCTION      0.00   491.99     0  02:32           0        2.43       0.090
  WS02004410           JUNCTION      0.00   481.75     0  02:32           0        2.43       0.163
  WS02004411           JUNCTION      0.00   470.79     0  02:33           0        2.43       0.213
  WS02004412           JUNCTION      0.00   463.30     0  02:33           0        2.42       0.289
  WS02004413           JUNCTION      0.00   459.02     0  02:33           0        2.42       0.538
  WS02006109           JUNCTION      1.23   546.99     0  02:27      0.0354        2.55       0.384
  WS02006110           JUNCTION      0.00   547.26     0  02:26           0        2.54       0.256
  WS02006111           JUNCTION      0.00   560.92     0  02:28           0        2.53       0.037
  WS02006112           JUNCTION      0.00   541.70     0  02:28           0        2.53       0.729
  WS02006113           JUNCTION      0.00   564.44     0  02:26           0        2.53       0.052
  WS02006115           JUNCTION      0.00   532.39     0  02:29           0        2.51       0.260
  WS02006116           JUNCTION      0.00   516.90     0  02:29           0         2.5       0.175
  WS02006228           JUNCTION      0.00   545.03     0  02:27           0        2.52       0.196
  WS02006229           JUNCTION      0.00   544.83     0  02:27           0        2.52       0.158
  WS02006230           JUNCTION     10.28   544.68     0  02:26       0.296        2.53       0.247
  WS02006231           JUNCTION      0.00   541.19     0  02:26           0        2.23      -0.020
  WS02006232           JUNCTION      0.00   541.46     0  02:26           0        2.24       0.201
  WS02006234           JUNCTION      0.00   542.48     0  02:26           0        2.23      -0.187
  WS02006235           JUNCTION      0.00   544.51     0  02:26           0        2.25       0.251
  WS02006238           JUNCTION      0.00   423.03     0  02:30           0        2.17      -0.198
  WS02006239           JUNCTION      0.00   421.93     0  02:30           0        2.15      -0.232
  WS02006240           JUNCTION      0.00   418.03     0  02:30           0        2.15      -0.043
  WS02006242           JUNCTION      0.00   417.49     0  02:30           0        2.14      -0.036
  WS02006243           JUNCTION      0.00   417.93     0  02:30           0        2.14      -0.130
  WS02006245           JUNCTION      0.00   417.47     0  02:30           0        2.15       0.568
  WS02006247           JUNCTION      0.00   418.05     0  02:30           0        2.15       0.006
  WS02006248           JUNCTION      0.00   419.60     0  02:30           0        2.15      -0.223
  WS02006249           JUNCTION      0.00   459.02     0  00:00           0        2.18       0.769
  WS02006251           JUNCTION      0.08   405.81     0  02:26     0.00222        2.18       0.027
  WS02006252           JUNCTION      0.00   400.00     0  00:00           0        2.16      -0.845
  WS02006256           JUNCTION      0.00   300.00     0  00:00           0       0.117      -3.129
  WSF200               JUNCTION      0.00   455.71     0  02:34           0         2.4       0.018
  YS02001580           JUNCTION      0.00    94.19     0  02:03           0     0.00402      -1.880
  YS02001583           JUNCTION      0.00   147.12     0  02:03           0      0.0153      -4.285
  YS02001586           JUNCTION    786.42   786.42     0  02:15        1.66        1.67       0.053
  YS02001590           JUNCTION      0.00   318.02     0  02:21           0        1.28      -0.049
  YS02001593           JUNCTION      0.00   318.13     0  02:27           0        1.28       0.001
  YS02001596           JUNCTION      0.00   317.90     0  02:31           0        1.28      -0.010
  YS02001600           JUNCTION      0.00   317.95     0  02:20           0        1.28      -0.006
  YS02001601           JUNCTION   1421.33  1738.84     0  02:14         2.3        3.58       0.001
  YS02001602           JUNCTION      0.00   509.79     0  02:02           0        2.21       0.009
  YS02001605           JUNCTION      0.00   509.87     0  02:02           0        2.11       0.016
  YS02001607           JUNCTION      0.00   509.92     0  02:02           0        2.11       0.086
  YS02001610           JUNCTION      0.00   778.37     0  02:15           0        2.36       0.076
  YS02001613           JUNCTION      0.00   519.77     0  02:02           0        1.93       0.076
  YS02001616           JUNCTION      0.00   522.26     0  02:02           0        1.93       0.014
  YS02001619           JUNCTION   1402.42  1402.42     0  02:15        2.66        4.35      -0.006
  YS02001622           JUNCTION      0.00   973.82     0  02:13           0         4.1      -0.002
  YS02001625           JUNCTION      0.00  1363.71     0  02:16           0        4.28       0.189
  YS02001629           JUNCTION      0.00   932.41     0  02:06           0        3.49       0.025
  YS02001633           JUNCTION   1069.75  1395.35     0  02:06        1.68        4.94       0.070
  YS02001641           JUNCTION      0.00  1395.01     0  02:07           0        4.72       0.056
  YS02001644           JUNCTION    956.90  1817.32     0  02:07        1.45        6.16       0.050
  YS02001647           JUNCTION      0.00  1816.98     0  02:07           0        5.82       0.003
  YS02001649           JUNCTION      0.00  2088.78     0  02:07           0        7.15       0.001
  YS02001652           JUNCTION      0.00   965.61     0  02:13           0        1.33      -0.079
  YS02001655           JUNCTION      0.15   965.52     0  02:13     0.00443        1.33       0.020
  YS02001658           JUNCTION      0.00   965.22     0  02:13           0        1.32      -0.025
  YS02001661           JUNCTION      0.00   959.86     0  02:13           0        1.32       0.028
  YS02001664           JUNCTION    938.51   938.51     0  02:13        1.32        1.32      -0.003
  YS02001745           JUNCTION    600.83   600.83     0  02:13       0.803       0.803       0.171
  YS02001748           JUNCTION      0.04   604.17     0  02:13      0.0013       0.803      -0.263
  YS02001751           JUNCTION      0.01   605.02     0  02:13    0.000317       0.807       0.082
  YS02001754           JUNCTION      0.26   605.32     0  02:13     0.00749       0.817      -0.125
  YS02001757           JUNCTION      0.00  3569.77     0  02:13           0        10.6       0.059
  YS02001759           JUNCTION    835.27  1467.51     0  02:13        1.11        2.65      -0.011
  YS02001762           JUNCTION      0.00   806.35     0  02:18           0        1.54      -0.001
  YS02001765           JUNCTION      0.00   805.16     0  02:18           0        1.54       0.003
  YS02001767           JUNCTION      0.54   805.02     0  02:18      0.0154        1.54       0.013
  YS02001770           JUNCTION   1164.90  1164.90     0  02:14        1.69        1.73       0.000
  YS02001774           JUNCTION      0.00   554.20     0  02:13           0       0.222       0.494
  YS02001779           JUNCTION      0.01   554.29     0  02:13    0.000144       0.181      -0.140
  YS02001783           JUNCTION      0.00  1167.22     0  02:12           0        3.89       0.004
  YS02001784           JUNCTION      1.06  1168.27     0  02:12      0.0305        3.92       0.011
  YS02001786           JUNCTION      0.06  1168.34     0  02:12     0.00162        3.92       0.016
  YS02001788           JUNCTION      0.07  1168.38     0  02:11     0.00204        3.92       0.008
  YS02001790           JUNCTION      0.15  1171.58     0  02:15     0.00446        3.93       0.029
  YS02001791           JUNCTION      0.00  1282.72     0  02:19           0        3.93      -0.024
  YS02001793           JUNCTION      0.00  1228.59     0  02:09           0        3.93       0.008
  YS02001882           JUNCTION      0.00    37.53     0  02:04           0      0.0123       4.831
  YS02001884           JUNCTION      0.00    74.23     0  02:04           0      0.0479       5.144
  YS02001887           JUNCTION    905.90   905.93     0  02:13        1.16        1.19       0.358
  YS02001890           JUNCTION      0.00   905.94     0  02:13           0        1.15       0.434
  YS02001895           JUNCTION      0.00   516.38     0  02:18           0        1.03       0.143
  YS02001898           JUNCTION      0.00   516.38     0  02:18           0        1.03       0.028
  YS02001901           JUNCTION      0.00   516.38     0  02:18           0        1.03       0.301
  YS02001904           JUNCTION      0.00   516.38     0  02:18           0        1.04       0.250
  YS02001907           JUNCTION      0.00  2098.56     0  02:13           0        3.57       0.480
  YS02001910           JUNCTION      0.00  1549.10     0  02:13           0        2.54       0.273
  YS02001915           JUNCTION   1033.64  1549.02     0  02:13        1.61        2.58       0.056
  YS02001918           JUNCTION      0.00   520.32     0  02:13           0       0.991       0.008
  YS02001920           JUNCTION      2.87   519.96     0  02:13      0.0827       0.975       0.098
  YS02001923           JUNCTION      0.04   513.70     0  02:13     0.00109       0.877      -0.092
  YS02001926           JUNCTION      0.05   512.84     0  02:13      0.0015       0.857       0.004
  YS02001929           JUNCTION    499.51   499.51     0  02:14       0.847       0.848      -0.022
  YS02006553           JUNCTION      0.00   804.00     0  02:28           0        2.24       0.518
  YS02006556           JUNCTION      0.00   803.55     0  02:28           0        2.25       0.335
  YS02006558           JUNCTION   1198.59  1198.59     0  02:13         1.7        3.92       0.088
  YS02006561           JUNCTION      0.00  1167.29     0  02:12           0        3.89      -0.004
  YS02163301           JUNCTION      0.00   932.45     0  02:06           0        3.49       0.041
  YS02163601           JUNCTION      0.11  1395.12     0  02:06     0.00317        4.71       0.104
  YS02164001           JUNCTION      0.00  1395.32     0  02:06           0        4.71       0.046
  CC-1                 OUTFALL       0.00   683.00     0  00:00           0        4.63       0.000
  CC-2                 OUTFALL       0.00   683.00     0  00:00           0        4.68       0.000
  JK-1                 OUTFALL       0.00  1000.00     0  00:00           0      0.0791       0.000
  JK-2                 OUTFALL       0.00  1000.00     0  00:00           0        3.84       0.000
  WSC                  OUTFALL       0.00   471.19     0  02:37           0        2.92       0.000
  CC-storage           STORAGE       0.00  3569.95     0  02:13           0        12.8      -0.240
  JK-storage           STORAGE       0.00  1251.21     0  02:20           0        4.08      -0.386
  
  
  **********************
  Node Surcharge Summary
  **********************
  
  Surcharging occurs when water rises above the top of the highest conduit.
  ---------------------------------------------------------------------
                                               Max. Height   Min. Depth
                                   Hours       Above Crown    Below Rim
  Node                 Type      Surcharged         Meters       Meters
  ---------------------------------------------------------------------
  WS02006109           JUNCTION        0.76          0.235        1.585
  WS02006110           JUNCTION        0.05          0.120        1.730
  WS02006228           JUNCTION        0.76          0.256        1.944
  WS02006229           JUNCTION        0.77          0.278        2.172
  WS02006230           JUNCTION        0.05          0.116        1.454
  WS02006231           JUNCTION        0.07          0.220        1.310
  WS02006232           JUNCTION        0.78          0.411        1.069
  WS02006234           JUNCTION        0.10          0.393        0.847
  WS02006235           JUNCTION        0.76          0.488        0.802
  WS02006238           JUNCTION        0.77          0.510        0.920
  WS02006239           JUNCTION        0.76          0.552        0.738
  WS02006240           JUNCTION        0.76          0.466        0.924
  WS02006242           JUNCTION        0.79          0.525        0.295
  WS02006243           JUNCTION        0.75          0.481        0.289
  WS02006245           JUNCTION        0.75          0.425        0.425
  WS02006247           JUNCTION        0.75          0.438        0.322
  WS02006248           JUNCTION        0.74          0.372        0.008
  WS02006249           JUNCTION        0.74          0.390        0.000
  WS02006251           JUNCTION        0.07          0.313        0.867
  WS02006252           JUNCTION        1.02          1.100        0.000
  WS02006256           JUNCTION        5.48          2.050        0.000
  YS02001580           JUNCTION        0.60          0.450        0.000
  YS02001583           JUNCTION        0.61          0.500        0.000
  YS02001586           JUNCTION        0.69          0.510        0.000
  YS02001590           JUNCTION        0.77          0.734        0.016
  YS02001593           JUNCTION        0.77          0.698        0.142
  YS02001596           JUNCTION        0.87          0.950        0.120
  YS02001600           JUNCTION        1.03          1.190        0.000
  YS02001601           JUNCTION        1.37          1.440        0.000
  YS02001602           JUNCTION        1.26          1.270        0.000
  YS02001605           JUNCTION        1.21          1.180        0.000
  YS02001607           JUNCTION        0.71          0.680        0.000
  YS02001610           JUNCTION        0.73          0.680        0.000
  YS02001613           JUNCTION        0.70          0.694        0.006
  YS02001616           JUNCTION        0.66          0.610        0.000
  YS02001619           JUNCTION        0.65          0.610        0.000
  YS02001622           JUNCTION        0.64          0.611        0.009
  YS02001625           JUNCTION        0.82          0.780        0.000
  YS02001629           JUNCTION        0.58          0.470        0.000
  YS02001633           JUNCTION        0.83          1.028        0.032
  YS02001641           JUNCTION        0.73          0.973        0.127
  YS02001644           JUNCTION        0.69          0.920        0.000
  YS02001647           JUNCTION        0.48          0.830        0.070
  YS02001649           JUNCTION        0.55          1.050        0.000
  YS02001652           JUNCTION        0.39          1.130        0.000
  YS02001655           JUNCTION        0.28          1.200        0.000
  YS02001658           JUNCTION        0.18          1.300        0.000
  YS02001661           JUNCTION        0.03          0.794        0.596
  YS02001748           JUNCTION        0.10          1.190        0.000
  YS02001751           JUNCTION        0.21          1.200        0.000
  YS02001754           JUNCTION        0.29          1.059        0.091
  YS02001757           JUNCTION        0.57          1.079        0.131
  YS02001759           JUNCTION        0.49          1.111        0.099
  YS02001762           JUNCTION        0.46          1.072        0.078
  YS02001765           JUNCTION        0.43          1.048        0.052
  YS02001767           JUNCTION        0.41          1.010        0.020
  YS02001770           JUNCTION        0.39          0.920        0.000
  YS02001774           JUNCTION        0.46          1.003        0.047
  YS02001779           JUNCTION        0.30          0.680        0.000
  YS02001783           JUNCTION        0.53          0.494        1.106
  YS02001784           JUNCTION        0.50          0.369        1.121
  YS02001786           JUNCTION        0.40          0.165        1.265
  YS02001882           JUNCTION        0.47          0.830        0.000
  YS02001884           JUNCTION        0.49          0.836        0.034
  YS02001887           JUNCTION        0.52          0.843        0.107
  YS02001890           JUNCTION        0.53          0.760        0.000
  YS02001895           JUNCTION        0.46          0.567        0.183
  YS02001898           JUNCTION        0.46          0.534        0.206
  YS02001901           JUNCTION        0.50          0.677        0.193
  YS02001904           JUNCTION        0.50          0.641        0.209
  YS02001907           JUNCTION        0.74          0.950        0.000
  YS02001910           JUNCTION        0.56          1.010        0.090
  YS02001915           JUNCTION        0.47          1.000        0.000
  YS02001918           JUNCTION        0.39          0.810        0.000
  YS02001920           JUNCTION        0.40          1.125        0.015
  YS02001923           JUNCTION        0.12          0.820        0.000
  YS02001926           JUNCTION        0.15          0.900        0.000
  YS02001929           JUNCTION        0.01          0.780        0.000
  YS02006553           JUNCTION        0.76          0.981        0.209
  YS02006556           JUNCTION        0.65          0.918        0.432
  YS02006558           JUNCTION        0.64          0.911        0.489
  YS02006561           JUNCTION        0.35          0.234        0.916
  YS02163301           JUNCTION        0.81          0.934        0.096
  YS02163601           JUNCTION        0.86          1.071        0.009
  YS02164001           JUNCTION        0.75          0.987        0.113
  
  
  *********************
  Node Flooding Summary
  *********************
  
  Flooding refers to all water that overflows a node, whether it ponds or not.
  --------------------------------------------------------------------------
                                                             Total   Maximum
                                 Maximum   Time of Max       Flood    Ponded
                        Hours       Rate    Occurrence      Volume     Depth
  Node                 Flooded       LPS   days hr:min    10^6 ltr    Meters
  --------------------------------------------------------------------------
  WS02006249              0.07     87.69      0  02:26       0.017     0.000
  WS02006252              0.01    245.63      0  00:00       0.000     0.000
  WS02006256              0.11    293.19      0  00:00       0.037     0.000
  YS02001580              0.01     83.35      0  02:03       0.000     0.000
  YS02001583              0.01     62.24      0  02:03       0.000     0.000
  YS02001586              0.48    468.90      0  02:15       0.375     0.000
  YS02001600              0.01      0.54      0  02:03       0.000     0.000
  YS02001601              0.62   1340.88      0  02:14       1.369     0.000
  YS02001602              0.49     61.97      0  02:26       0.098     0.000
  YS02001605              0.01      2.83      0  02:03       0.000     0.000
  YS02001607              0.01     21.08      0  02:03       0.000     0.000
  YS02001610              0.43    778.14      0  02:15       0.667     0.000
  YS02001616              0.01     49.55      0  02:03       0.000     0.000
  YS02001619              0.01     19.64      0  02:03       0.000     0.000
  YS02001625              0.37   1363.70      0  02:16       0.998     0.000
  YS02001629              0.13    207.98      0  02:12       0.054     0.000
  YS02001644              0.17    989.91      0  02:13       0.337     0.000
  YS02001649              0.01     33.84      0  02:09       0.000     0.000
  YS02001652              0.01      7.48      0  02:09       0.000     0.000
  YS02001655              0.01     16.97      0  02:09       0.000     0.000
  YS02001658              0.01    359.03      0  02:09       0.000     0.000
  YS02001748              0.01    156.16      0  02:10       0.000     0.000
  YS02001751              0.01     15.96      0  02:10       0.000     0.000
  YS02001770              0.01      8.99      0  02:10       0.000     0.000
  YS02001779              0.15    554.28      0  02:13       0.163     0.000
  YS02001882              0.01      5.29      0  02:05       0.000     0.000
  YS02001890              0.18    390.36      0  02:13       0.117     0.000
  YS02001907              0.34   2098.55      0  02:13       1.323     0.000
  YS02001915              0.01     91.36      0  02:05       0.000     0.000
  YS02001918              0.01     93.02      0  02:07       0.001     0.000
  YS02001923              0.01    261.32      0  02:07       0.000     0.000
  YS02001926              0.01    184.48      0  02:07       0.000     0.000
  YS02001929              0.01    340.14      0  02:07       0.002     0.000
  
  
  **********************
  Storage Volume Summary
  **********************
  
  ------------------------------------------------------------------------------------------------
                         Average    Avg   Evap  Exfil     Maximum    Max    Time of Max    Maximum
                          Volume   Pcnt   Pcnt   Pcnt      Volume   Pcnt     Occurrence    Outflow
  Storage Unit           1000 m³   Full   Loss   Loss     1000 m³   Full    days hr:min        LPS
  ------------------------------------------------------------------------------------------------
  CC-storage               1.905   29.7    0.0    0.0       3.737   58.3       0  02:40    1783.53
  JK-storage               0.078   26.8    0.0    0.0       0.201   69.0       0  02:25    2300.00
  
  
  ***********************
  Outfall Loading Summary
  ***********************
  
  -----------------------------------------------------------
                         Flow       Avg       Max       Total
                         Freq      Flow      Flow      Volume
  Outfall Node           Pcnt       LPS       LPS    10^6 ltr
  -----------------------------------------------------------
  CC-1                  55.92    683.00    683.00       4.628
  CC-2                  56.18    683.00    683.00       4.684
  JK-1                   0.45   1000.00   1000.00       0.079
  JK-2                  30.88   1000.00   1000.00       3.837
  WSC                   99.95    151.31    471.19       2.918
  -----------------------------------------------------------
  System                48.68   3517.31   3366.23      16.147
  
  
  ********************
  Link Flow Summary
  ********************
  
  -----------------------------------------------------------------------------
                                 Maximum  Time of Max   Maximum    Max/    Max/
                                  |Flow|   Occurrence   |Veloc|    Full    Full
  Link                 Type          LPS  days hr:min     m/sec    Flow   Depth
  -----------------------------------------------------------------------------
  1                    CONDUIT    471.19     0  02:37      2.70    0.16    0.27
  WS02003060WS02003069 CONDUIT    474.39     0  02:35      1.59    0.19    0.31
  WS02003066WSF200     CONDUIT    455.71     0  02:34      2.74    0.08    0.21
  WS02003067WS02003066 CONDUIT    455.90     0  02:34      1.10    0.15    0.39
  WS02003069WS02003072 CONDUIT    472.41     0  02:36      1.30    0.23    0.36
  WS02003072WS02003073 CONDUIT    471.20     0  02:36      1.36    1.02    0.35
  WS02004401WS02004402 CONDUIT    499.20     0  02:31      1.04    0.60    0.83
  WS02004402WS02004403 CONDUIT    498.19     0  02:31      1.05    0.72    0.85
  WS02004403WS02004404 CONDUIT    495.80     0  02:31      1.05    0.36    0.90
  WS02004404WS02004405 CONDUIT    494.59     0  02:31      1.19    4.85    0.93
  WS02004405WS02004406 CONDUIT    494.68     0  02:32      1.18    0.98    0.93
  WS02004406WS02004407 CONDUIT    493.08     0  02:32      0.99    0.22    0.61
  WS02004407WS02004409 CONDUIT    491.99     0  02:32      1.50    0.17    0.44
  WS02004409WS02004410 CONDUIT    481.75     0  02:32      0.98    0.62    0.61
  WS02004410WS02004411 CONDUIT    470.79     0  02:33      0.93    0.64    0.63
  WS02004411WS02004412 CONDUIT    463.30     0  02:33      0.93    0.66    0.64
  WS02004412WS02004413 CONDUIT    459.02     0  02:33      0.97    0.31    0.73
  WS02004413WS02003067 CONDUIT    455.00     0  02:34      1.02    0.19    0.56
  WS02006109WS02006110 CONDUIT    547.26     0  02:26      1.09    1.05    1.00
  WS02006110WS02006113 CONDUIT    564.44     0  02:26      1.37    0.51    0.78
  WS02006111WS02006112 CONDUIT    541.70     0  02:28      1.85    0.26    0.67
  WS02006112WS02006115 CONDUIT    532.39     0  02:29      0.80    0.31    0.85
  WS02006113WS02006111 CONDUIT    560.92     0  02:28      2.47    0.67    0.46
  WS02006115WS02006116 CONDUIT    516.90     0  02:29      1.11    0.66    0.72
  WS02006116WS02004401 CONDUIT    507.19     0  02:31      1.06    0.70    0.80
  WS02006228WS02006109 CONDUIT    545.76     0  02:27      1.09    2.38    1.00
  WS02006229WS02006228 CONDUIT    545.03     0  02:27      1.11    1.81    1.00
  WS02006230WS02006229 CONDUIT    544.83     0  02:27      1.42   12.12    1.00
  WS02006231WS02006230 CONDUIT    534.40     0  02:26      1.50    8.11    1.00
  WS02006232WS02006231 CONDUIT    541.19     0  02:26      1.44    1.13    1.00
  WS02006234WS02006232 CONDUIT    541.46     0  02:26      1.41    1.10    1.00
  WS02006235WS02006234 CONDUIT    542.48     0  02:26      1.41    5.72    1.00
  WS02006238WS02006235 CONDUIT    424.25     0  02:30      1.45    0.95    1.00
  WS02006239WS02006238 CONDUIT    423.03     0  02:30      1.10    1.35    1.00
  WS02006240WS02006239 CONDUIT    421.93     0  02:30      1.24    1.33    1.00
  WS02006242WS02006240 CONDUIT    418.03     0  02:30      1.13    1.66    1.00
  WS02006243WS02006242 CONDUIT    417.49     0  02:30      1.40    0.89    1.00
  WS02006245WS02006243 CONDUIT    417.93     0  02:30      1.45    1.24    1.00
  WS02006247WS02006245 CONDUIT    417.47     0  02:30      1.43    3.31    1.00
  WS02006248WS02006247 CONDUIT    418.05     0  02:30      1.44    0.91    1.00
  WS02006249WS02006248 CONDUIT    419.60     0  02:30      1.36    2.30    1.00
  WS02006251WS02006249 CONDUIT    459.02     0  00:00      1.99    1.32    1.00
  WS02006252WS02006251 CONDUIT    405.73     0  02:26     17.84    1.49    1.00
  WS02006256WS02006235 CONDUIT    288.91     0  00:00      4.23    3.06    1.00
  WSF200WS02003060     CONDUIT    457.48     0  02:34      1.98    0.10    0.26
  YS02001580YS02001583 CONDUIT     94.19     0  02:03      0.61    0.37    1.00
  YS02001583YS02001586 CONDUIT    147.12     0  02:03      0.62    0.22    1.00
  YS02001586YS02001590 CONDUIT    318.02     0  02:21      1.26    0.56    1.00
  YS02001590YS02001593 CONDUIT    318.13     0  02:27      1.13    2.00    1.00
  YS02001593YS02001596 CONDUIT    317.90     0  02:31      1.77    0.50    1.00
  YS02001596YS02001600 CONDUIT    317.95     0  02:20      1.26    0.62    1.00
  YS02001600YS02001601 CONDUIT    317.95     0  02:27      1.12    0.55    1.00
  YS02001601YS02001602 CONDUIT    509.79     0  02:02      1.80    1.84    1.00
  YS02001602YS02001605 CONDUIT    509.87     0  02:02      1.80   10.79    1.00
  YS02001605YS02001607 CONDUIT    509.92     0  02:02      1.80    2.80    1.00
  YS02001607YS02001610 CONDUIT    516.81     0  02:02      0.66    0.49    1.00
  YS02001610YS02001613 CONDUIT    519.77     0  02:02      0.66    0.60    1.00
  YS02001613YS02001616 CONDUIT    522.26     0  02:02      0.67    0.45    1.00
  YS02001616YS02001619 CONDUIT    505.07     0  02:02      0.67    0.88    1.00
  YS02001619YS02001622 CONDUIT    973.82     0  02:13      1.24    1.44    1.00
  YS02001622YS02001625 CONDUIT    974.12     0  02:13      1.24    0.52    1.00
  YS02001625YS02001629 CONDUIT    932.41     0  02:06      1.19    0.44    1.00
  YS02001629YS02163301 CONDUIT    932.45     0  02:06      1.19    1.15    1.00
  YS02001633YS02163601 CONDUIT   1395.01     0  02:06      1.78    1.46    1.00
  YS02001641YS02001644 CONDUIT   1395.08     0  02:07      1.78    4.51    1.00
  YS02001644YS02001647 CONDUIT   1816.98     0  02:07      2.31    1.07    1.00
  YS02001647YS02001649 CONDUIT   1823.33     0  02:07      2.36    0.96    1.00
  YS02001649YS02001757 CONDUIT   2073.09     0  02:06      2.65    1.26    1.00
  YS02001652YS02001649 CONDUIT    965.67     0  02:13      1.23    0.48    1.00
  YS02001655YS02001652 CONDUIT    965.61     0  02:13      1.29    0.47    1.00
  YS02001658YS02001655 CONDUIT    965.37     0  02:13      1.90    0.41    1.00
  YS02001661YS02001658 CONDUIT    965.22     0  02:13      2.33    0.38    1.00
  YS02001664YS02001661 CONDUIT    959.86     0  02:13      2.35    0.30    0.78
  YS02001745YS02001748 CONDUIT    604.13     0  02:13      2.21    0.23    0.89
  YS02001748YS02001751 CONDUIT    605.01     0  02:13      1.71    0.31    1.00
  YS02001751YS02001754 CONDUIT    605.06     0  02:13      1.44    0.29    1.00
  YS02001754YS02001757 CONDUIT    605.25     0  02:13      0.77    0.24    1.00
  YS02001757CaochengTiaoxuchi CONDUIT   3569.95     0  02:13      4.92    1.55    1.00
  YS02001759YS02001757 CONDUIT   1467.53     0  02:13      1.87    1.04    1.00
  YS02001762YS02001759 CONDUIT    806.55     0  02:18      1.03    0.93    1.00
  YS02001765YS02001762 CONDUIT    806.35     0  02:18      1.03    0.76    1.00
  YS02001767YS02001765 CONDUIT    805.16     0  02:18      1.03    1.01    1.00
  YS02001770YS02001767 CONDUIT    804.48     0  02:18      1.02    3.19    1.00
  YS02001774YS02001770 CONDUIT    554.20     0  02:13      0.71    0.35    1.00
  YS02001779YS02001774 CONDUIT    554.29     0  02:13      0.71    0.28    1.00
  YS02001783YS02001784 CONDUIT   1167.21     0  02:12      2.32    1.61    1.00
  YS02001784YS02001785 CONDUIT   1168.29     0  02:12      2.32    2.72    1.00
  YS02001786YS02001788 CONDUIT   1168.31     0  02:11      2.49    2.25    0.89
  YS02001788YS02001790 CONDUIT   1171.42     0  02:15      2.71    0.86    0.84
  YS02001790YS02001791 CONDUIT   1282.72     0  02:19      3.42    1.40    0.70
  YS02001791YS02001793 CONDUIT   1228.59     0  02:09      6.74    0.53    0.43
  YS02001793JiankangQianchi CONDUIT   1251.21     0  02:20      2.50    0.10    0.64
  YS02001882YS02001884 CONDUIT     37.53     0  02:04      0.11    0.04    1.00
  YS02001884YS02001887 CONDUIT     74.23     0  02:04      0.09    0.10    1.00
  YS02001887YS02001890 CONDUIT    905.94     0  02:13      1.15    1.55    1.00
  YS02001890YS02001895 CONDUIT    516.38     0  02:18      0.66    0.24    1.00
  YS02001895YS02001898 CONDUIT    516.38     0  02:18      0.66    0.90    1.00
  YS02001898YS02001901 CONDUIT    516.38     0  02:18      0.66    0.33    1.00
  YS02001901YS02001904 CONDUIT    516.38     0  02:18      0.66    0.80    1.00
  YS02001904YS02001907 CONDUIT    516.38     0  02:18      0.66    0.18    1.00
  YS02001907YS02006553 CONDUIT    804.00     0  02:28      0.89    0.95    1.00
  YS02001910YS02001907 CONDUIT   1549.15     0  02:13      1.97    0.87    1.00
  YS02001915YS02001910 CONDUIT   1549.10     0  02:13      1.97    0.77    1.00
  YS02001918YS02001915 CONDUIT    520.68     0  02:13      0.66    0.29    1.00
  YS02001920YS02001918 CONDUIT    520.32     0  02:13      0.66    0.50    1.00
  YS02001923YS02001920 CONDUIT    517.09     0  02:13      0.69    0.23    1.00
  YS02001926YS02001923 CONDUIT    513.66     0  02:13      0.95    0.73    1.00
  YS02001929YS02001926 CONDUIT    512.79     0  02:13      1.11    0.24    1.00
  YS02006553YS02006556 CONDUIT    803.55     0  02:28      1.02    0.69    1.00
  YS02006556YS02006558 CONDUIT    805.07     0  02:28      1.03    0.64    1.00
  YS02006558YS02006561 CONDUIT   1167.29     0  02:12      4.13    2.58    1.00
  YS02006561YS02001783 CONDUIT   1167.22     0  02:12      2.32    0.60    1.00
  YS02163301YS02001633 CONDUIT    932.39     0  02:06      1.19    0.88    1.00
  YS02163601YS02164001 CONDUIT   1395.32     0  02:06      1.78    1.24    1.00
  YS02164001YS02001641 CONDUIT   1395.01     0  02:07      1.78    1.90    1.00
  CC-R1                PUMP       683.00     0  00:00              1.00
  CC-R2                PUMP       683.00     0  00:00              1.00
  CC-S1                PUMP       200.00     0  00:00              1.00
  CC-S2                PUMP       200.00     0  00:00              1.00
  JK-R1                PUMP      1000.00     0  00:00              1.00
  JK-R2                PUMP      1000.00     0  00:00              1.00
  JK-S                 PUMP       300.00     0  00:00              1.00
  
  
  ***************************
  Flow Classification Summary
  ***************************
  
  -------------------------------------------------------------------------------------
                      Adjusted    ---------- Fraction of Time in Flow Class ---------- 
                       /Actual         Up    Down  Sub   Sup   Up    Down  Norm  Inlet 
  Conduit               Length    Dry  Dry   Dry   Crit  Crit  Crit  Crit  Ltd   Ctrl  
  -------------------------------------------------------------------------------------
  1                       1.00   0.00  0.00  0.00  0.00  1.00  0.00  0.00  0.53  0.00
  WS02003060WS02003069    1.00   0.00  0.00  0.00  0.98  0.02  0.00  0.00  0.83  0.00
  WS02003066WSF200        1.00   0.06  0.00  0.00  0.00  0.94  0.00  0.00  0.93  0.00
  WS02003067WS02003066    1.00   0.05  0.00  0.00  0.94  0.00  0.00  0.00  0.00  0.00
  WS02003069WS02003072    1.00   0.00  0.00  0.00  0.99  0.01  0.00  0.00  0.88  0.00
  WS02003072WS02003073    1.00   0.00  0.00  0.00  0.00  0.00  0.00  1.00  0.00  0.00
  WS02004401WS02004402    1.00   0.02  0.00  0.00  0.98  0.00  0.00  0.00  0.00  0.00
  WS02004402WS02004403    1.00   0.02  0.00  0.00  0.97  0.00  0.00  0.00  0.00  0.00
  WS02004403WS02004404    1.00   0.00  0.03  0.00  0.97  0.00  0.00  0.00  0.00  0.00
  WS02004404WS02004405    1.00   0.00  0.00  0.00  1.00  0.00  0.00  0.00  0.00  0.00
  WS02004405WS02004406    1.00   0.00  0.00  0.00  1.00  0.00  0.00  0.00  0.00  0.00
  WS02004406WS02004407    1.00   0.00  0.04  0.00  0.96  0.00  0.00  0.00  0.00  0.00
  WS02004407WS02004409    1.00   0.04  0.00  0.00  0.95  0.01  0.00  0.00  0.96  0.00
  WS02004409WS02004410    1.00   0.04  0.00  0.00  0.96  0.00  0.00  0.00  0.00  0.00
  WS02004410WS02004411    1.00   0.04  0.00  0.00  0.96  0.00  0.00  0.00  0.00  0.00
  WS02004411WS02004412    1.00   0.04  0.00  0.00  0.96  0.00  0.00  0.00  0.00  0.00
  WS02004412WS02004413    1.00   0.04  0.00  0.00  0.95  0.00  0.00  0.00  0.00  0.00
  WS02004413WS02003067    1.00   0.04  0.01  0.00  0.00  0.00  0.95  0.00  0.00  0.00
  WS02006109WS02006110    1.00   0.00  0.01  0.00  0.98  0.00  0.01  0.00  0.00  0.00
  WS02006110WS02006113    1.00   0.01  0.01  0.00  0.98  0.00  0.00  0.00  0.00  0.00
  WS02006111WS02006112    1.00   0.02  0.00  0.00  0.98  0.00  0.00  0.00  0.98  0.00
  WS02006112WS02006115    1.00   0.02  0.00  0.00  0.97  0.00  0.00  0.00  0.00  0.00
  WS02006113WS02006111    1.00   0.02  0.00  0.00  0.00  0.98  0.00  0.00  0.09  0.00
  WS02006115WS02006116    1.00   0.02  0.00  0.00  0.97  0.00  0.00  0.01  0.00  0.00
  WS02006116WS02004401    1.00   0.02  0.00  0.00  0.98  0.00  0.00  0.00  0.00  0.00
  WS02006228WS02006109    1.00   0.00  0.00  0.00  1.00  0.00  0.00  0.00  0.00  0.00
  WS02006229WS02006228    1.00   0.00  0.00  0.00  0.99  0.00  0.00  0.01  0.00  0.00
  WS02006230WS02006229    1.00   0.00  0.00  0.00  0.99  0.00  0.00  0.01  0.01  0.00
  WS02006231WS02006230    1.00   0.00  0.00  0.00  0.11  0.00  0.89  0.00  0.00  0.00
  WS02006232WS02006231    1.00   0.00  0.00  0.00  0.99  0.00  0.00  0.00  0.00  0.00
  WS02006234WS02006232    1.00   0.00  0.00  0.00  1.00  0.00  0.00  0.00  0.26  0.00
  WS02006235WS02006234    1.00   0.00  0.00  0.00  0.57  0.00  0.43  0.00  0.00  0.00
  WS02006238WS02006235    1.00   0.00  0.00  0.00  1.00  0.00  0.00  0.00  0.00  0.00
  WS02006239WS02006238    1.00   0.00  0.00  0.00  1.00  0.00  0.00  0.00  0.37  0.00
  WS02006240WS02006239    1.00   0.00  0.00  0.00  0.37  0.00  0.00  0.62  0.01  0.00
  WS02006242WS02006240    1.00   0.00  0.00  0.00  1.00  0.00  0.00  0.00  0.00  0.00
  WS02006243WS02006242    1.00   0.00  0.00  0.00  0.99  0.00  0.00  0.00  0.72  0.00
  WS02006245WS02006243    1.00   0.00  0.00  0.00  0.70  0.00  0.00  0.30  0.00  0.00
  WS02006247WS02006245    1.00   0.00  0.00  0.00  0.98  0.00  0.00  0.02  0.00  0.00
  WS02006248WS02006247    1.00   0.00  0.00  0.00  0.99  0.00  0.00  0.01  0.63  0.00
  WS02006249WS02006248    1.00   0.00  0.00  0.00  0.33  0.00  0.67  0.00  0.00  0.00
  WS02006251WS02006249    1.00   0.00  0.00  0.00  0.99  0.01  0.00  0.00  0.65  0.00
  WS02006252WS02006251    1.00   0.00  0.60  0.00  0.01  0.00  0.39  0.00  0.00  0.00
  WS02006256WS02006235    1.00   0.00  0.00  0.00  1.00  0.00  0.00  0.00  0.00  0.00
  WSF200WS02003060        1.00   0.00  0.06  0.00  0.60  0.34  0.00  0.00  0.75  0.00
  YS02001580YS02001583    1.00   0.25  0.56  0.00  0.19  0.00  0.00  0.00  0.65  0.00
  YS02001583YS02001586    1.00   0.42  0.34  0.00  0.24  0.00  0.00  0.00  0.65  0.00
  YS02001586YS02001590    1.00   0.13  0.00  0.00  0.43  0.04  0.00  0.40  0.37  0.00
  YS02001590YS02001593    1.00   0.13  0.01  0.00  0.11  0.00  0.76  0.00  0.00  0.00
  YS02001593YS02001596    1.00   0.14  0.00  0.00  0.13  0.01  0.00  0.73  0.02  0.00
  YS02001596YS02001600    1.00   0.14  0.00  0.00  0.19  0.01  0.00  0.66  0.04  0.00
  YS02001600YS02001601    1.00   0.13  0.01  0.00  0.86  0.00  0.00  0.00  0.61  0.00
  YS02001601YS02001602    1.00   0.13  0.01  0.00  0.86  0.00  0.00  0.00  0.00  0.00
  YS02001602YS02001605    1.00   0.14  0.00  0.00  0.86  0.00  0.00  0.00  0.00  0.00
  YS02001605YS02001607    1.00   0.14  0.00  0.00  0.86  0.00  0.00  0.00  0.00  0.00
  YS02001607YS02001610    1.00   0.13  0.01  0.00  0.86  0.00  0.00  0.00  0.02  0.00
  YS02001610YS02001613    1.00   0.13  0.00  0.00  0.87  0.00  0.00  0.00  0.01  0.00
  YS02001613YS02001616    1.00   0.13  0.00  0.00  0.87  0.00  0.00  0.00  0.00  0.00
  YS02001616YS02001619    1.00   0.13  0.00  0.00  0.87  0.00  0.00  0.00  0.00  0.00
  YS02001619YS02001622    1.00   0.13  0.00  0.00  0.87  0.00  0.00  0.00  0.28  0.00
  YS02001622YS02001625    1.00   0.13  0.00  0.00  0.87  0.00  0.00  0.00  0.05  0.00
  YS02001625YS02001629    1.00   0.13  0.05  0.00  0.15  0.00  0.67  0.00  0.00  0.00
  YS02001629YS02163301    1.00   0.16  0.01  0.00  0.83  0.00  0.00  0.00  0.00  0.00
  YS02001633YS02163601    1.00   0.00  0.01  0.00  0.99  0.00  0.00  0.00  0.15  0.00
  YS02001641YS02001644    1.00   0.00  0.01  0.00  0.99  0.00  0.00  0.00  0.00  0.00
  YS02001644YS02001647    1.00   0.00  0.18  0.00  0.82  0.00  0.00  0.00  0.00  0.00
  YS02001647YS02001649    1.00   0.00  0.18  0.00  0.50  0.33  0.00  0.00  0.57  0.00
  YS02001649YS02001757    1.00   0.00  0.00  0.00  0.64  0.36  0.00  0.00  0.50  0.00
  YS02001652YS02001649    1.00   0.00  0.00  0.00  0.96  0.04  0.00  0.00  0.75  0.00
  YS02001655YS02001652    1.00   0.00  0.00  0.00  0.17  0.01  0.00  0.82  0.07  0.00
  YS02001658YS02001655    1.00   0.00  0.14  0.00  0.63  0.23  0.00  0.00  0.72  0.00
  YS02001661YS02001658    1.00   0.14  0.00  0.00  0.47  0.39  0.00  0.00  0.72  0.00
  YS02001664YS02001661    1.00   0.13  0.00  0.00  0.75  0.12  0.00  0.00  0.85  0.00
  YS02001745YS02001748    1.00   0.00  0.00  0.00  0.06  0.01  0.00  0.93  0.04  0.00
  YS02001748YS02001751    1.00   0.00  0.00  0.00  0.79  0.21  0.00  0.00  0.79  0.00
  YS02001751YS02001754    1.00   0.00  0.00  0.00  0.12  0.01  0.00  0.87  0.03  0.00
  YS02001754YS02001757    1.00   0.00  0.00  0.00  1.00  0.00  0.00  0.00  0.86  0.00
  YS02001757CaochengTiaoxuchi    1.00   0.00  0.00  0.00  0.94  0.06  0.00  0.00  0.84  0.00
  YS02001759YS02001757    1.00   0.00  0.00  0.00  1.00  0.00  0.00  0.00  0.60  0.00
  YS02001762YS02001759    1.00   0.00  0.00  0.00  1.00  0.00  0.00  0.00  0.05  0.00
  YS02001765YS02001762    1.00   0.00  0.00  0.00  1.00  0.00  0.00  0.00  0.75  0.00
  YS02001767YS02001765    1.00   0.00  0.00  0.00  1.00  0.00  0.00  0.00  0.00  0.00
  YS02001770YS02001767    1.00   0.00  0.00  0.00  1.00  0.00  0.00  0.00  0.00  0.00
  YS02001774YS02001770    1.00   0.00  0.13  0.00  0.70  0.00  0.17  0.00  0.03  0.00
  YS02001779YS02001774    1.00   0.00  0.00  0.00  1.00  0.00  0.00  0.00  0.80  0.00
  YS02001783YS02001784    1.00   0.00  0.18  0.00  0.82  0.00  0.00  0.00  0.55  0.00
  YS02001784YS02001785    1.00   0.00  0.00  0.00  1.00  0.00  0.00  0.00  0.17  0.00
  YS02001786YS02001788    1.00   0.00  0.00  0.00  0.80  0.20  0.00  0.00  0.00  0.00
  YS02001788YS02001790    1.00   0.00  0.00  0.00  0.21  0.79  0.00  0.00  0.81  0.00
  YS02001790YS02001791    1.00   0.00  0.00  0.00  0.01  0.99  0.00  0.00  0.15  0.00
  YS02001791YS02001793    1.00   0.00  0.00  0.00  0.00  1.00  0.00  0.00  0.00  0.00
  YS02001793JiankangQianchi    1.00   0.00  0.00  0.00  0.96  0.03  0.00  0.00  0.98  0.00
  YS02001882YS02001884    1.00   0.15  0.01  0.00  0.84  0.00  0.00  0.00  0.00  0.00
  YS02001884YS02001887    1.00   0.06  0.05  0.00  0.89  0.00  0.00  0.00  0.00  0.00
  YS02001887YS02001890    1.00   0.00  0.00  0.00  0.97  0.00  0.03  0.00  0.00  0.00
  YS02001890YS02001895    1.00   0.00  0.16  0.00  0.83  0.00  0.00  0.00  0.00  0.00
  YS02001895YS02001898    1.00   0.17  0.00  0.00  0.81  0.00  0.02  0.00  0.00  0.00
  YS02001898YS02001901    1.00   0.17  0.00  0.00  0.83  0.00  0.00  0.00  0.01  0.00
  YS02001901YS02001904    1.00   0.17  0.00  0.00  0.83  0.00  0.00  0.00  0.00  0.00
  YS02001904YS02001907    1.00   0.00  0.17  0.00  0.83  0.00  0.00  0.00  0.00  0.00
  YS02001907YS02006553    1.00   0.00  0.02  0.00  0.98  0.00  0.00  0.00  0.00  0.00
  YS02001910YS02001907    1.00   0.00  0.00  0.00  0.97  0.00  0.00  0.03  0.12  0.00
  YS02001915YS02001910    1.00   0.00  0.00  0.00  0.96  0.04  0.00  0.00  0.16  0.00
  YS02001918YS02001915    1.00   0.00  0.01  0.00  0.98  0.02  0.00  0.00  0.75  0.00
  YS02001920YS02001918    1.00   0.00  0.01  0.00  0.99  0.00  0.00  0.00  0.00  0.00
  YS02001923YS02001920    1.00   0.00  0.00  0.00  1.00  0.00  0.00  0.00  0.92  0.00
  YS02001926YS02001923    1.00   0.00  0.07  0.00  0.06  0.00  0.87  0.00  0.00  0.00
  YS02001929YS02001926    1.00   0.00  0.13  0.00  0.87  0.00  0.00  0.00  0.82  0.00
  YS02006553YS02006556    1.00   0.01  0.00  0.00  0.99  0.00  0.00  0.00  0.03  0.00
  YS02006556YS02006558    1.00   0.00  0.00  0.00  1.00  0.00  0.00  0.00  0.00  0.00
  YS02006558YS02006561    1.00   0.18  0.00  0.00  0.06  0.76  0.00  0.00  0.19  0.00
  YS02006561YS02001783    1.00   0.18  0.00  0.00  0.09  0.73  0.00  0.00  0.69  0.00
  YS02163301YS02001633    1.00   0.00  0.16  0.00  0.84  0.00  0.00  0.00  0.00  0.00
  YS02163601YS02164001    1.00   0.00  0.08  0.00  0.92  0.00  0.00  0.00  0.00  0.00
  YS02164001YS02001641    1.00   0.01  0.07  0.00  0.92  0.00  0.00  0.00  0.06  0.00
  
  
  *************************
  Conduit Surcharge Summary
  *************************
  
  ----------------------------------------------------------------------------
                                                           Hours        Hours 
                         --------- Hours Full --------   Above Full   Capacity
  Conduit                Both Ends  Upstream  Dnstream   Normal Flow   Limited
  ----------------------------------------------------------------------------
  WS02003072WS02003073        0.01      0.01      0.01      0.04         0.01
  WS02004404WS02004405        0.01      0.01      0.01      1.89         0.01
  WS02006109WS02006110        0.05      0.05      0.78      0.06         0.01
  WS02006110WS02006113        0.01      0.01      0.78      0.01         0.01
  WS02006111WS02006112        0.01      0.01      0.92      0.01         0.01
  WS02006228WS02006109        0.76      0.78      0.76      1.03         0.76
  WS02006229WS02006228        0.76      0.77      0.76      0.89         0.76
  WS02006230WS02006229        0.81      0.87      0.81      2.30         0.81
  WS02006231WS02006230        0.05      0.05      0.07      2.07         0.01
  WS02006232WS02006231        0.07      0.07      0.78      0.08         0.01
  WS02006234WS02006232        0.75      0.75      0.78      0.08         0.08
  WS02006235WS02006234        0.10      0.10      0.76      1.94         0.01
  WS02006238WS02006235        0.76      0.76      0.78      0.01         0.01
  WS02006239WS02006238        0.77      0.77      0.77      0.87         0.74
  WS02006240WS02006239        0.76      0.76      0.76      0.87         0.73
  WS02006242WS02006240        0.76      0.76      0.81      0.98         0.01
  WS02006243WS02006242        0.75      0.75      0.79      0.01         0.01
  WS02006245WS02006243        0.75      0.75      0.75      0.84         0.69
  WS02006247WS02006245        0.75      0.75      0.75      1.89         0.75
  WS02006248WS02006247        0.75      0.75      0.75      0.01         0.01
  WS02006249WS02006248        0.74      0.74      0.74      1.85         0.01
  WS02006251WS02006249        0.74      0.75      0.74      0.93         0.73
  WS02006252WS02006251        0.95      0.95      1.01      0.95         0.01
  WS02006256WS02006235        2.00      2.00      5.47      0.11         0.01
  YS02001580YS02001583        0.60      0.60      0.62      0.01         0.01
  YS02001583YS02001586        0.61      0.61      0.69      0.01         0.01
  YS02001586YS02001590        0.70      0.70      0.77      0.01         0.01
  YS02001590YS02001593        0.77      0.77      0.79      0.81         0.01
  YS02001593YS02001596        0.78      0.78      0.87      0.01         0.01
  YS02001596YS02001600        0.92      0.92      1.03      0.01         0.01
  YS02001600YS02001601        1.09      1.09      1.37      0.01         0.01
  YS02001601YS02001602        1.26      1.26      1.41      1.05         0.01
  YS02001602YS02001605        1.21      1.21      1.26      2.25         0.01
  YS02001605YS02001607        1.17      1.21      1.17      1.33         1.17
  YS02001607YS02001610        0.71      0.71      0.73      0.01         0.01
  YS02001610YS02001613        0.70      0.70      0.73      0.01         0.01
  YS02001613YS02001616        0.66      0.66      0.70      0.01         0.01
  YS02001616YS02001619        0.65      0.65      0.66      0.01         0.01
  YS02001619YS02001622        0.64      0.65      0.64      0.81         0.63
  YS02001622YS02001625        0.64      0.64      0.82      0.01         0.01
  YS02001625YS02001629        0.58      0.58      0.82      0.01         0.01
  YS02001629YS02163301        0.80      0.80      0.81      0.32         0.32
  YS02001633YS02163601        0.83      0.83      0.86      0.45         0.45
  YS02001641YS02001644        0.69      0.73      0.69      1.44         0.69
  YS02001644YS02001647        0.48      0.48      0.69      0.05         0.01
  YS02001647YS02001649        0.48      0.48      0.55      0.01         0.01
  YS02001649YS02001757        0.54      0.55      0.57      0.37         0.29
  YS02001652YS02001649        0.41      0.41      0.55      0.01         0.01
  YS02001655YS02001652        0.28      0.28      0.39      0.01         0.01
  YS02001658YS02001655        0.18      0.18      0.28      0.01         0.01
  YS02001661YS02001658        0.03      0.03      0.18      0.01         0.01
  YS02001664YS02001661        0.01      0.01      0.09      0.01         0.01
  YS02001745YS02001748        0.01      0.01      0.10      0.01         0.01
  YS02001748YS02001751        0.16      0.16      0.21      0.01         0.01
  YS02001751YS02001754        0.21      0.21      0.29      0.01         0.01
  YS02001754YS02001757        0.32      0.32      0.57      0.01         0.01
  YS02001757CaochengTiaoxuchi        0.40      0.57      0.85      0.43         0.21
  YS02001759YS02001757        0.49      0.49      0.57      0.06         0.07
  YS02001762YS02001759        0.46      0.46      0.49      0.01         0.02
  YS02001765YS02001762        0.43      0.43      0.46      0.01         0.01
  YS02001767YS02001765        0.41      0.41      0.43      0.01         0.05
  YS02001770YS02001767        0.41      0.41      0.41      0.54         0.36
  YS02001774YS02001770        0.39      0.39      0.46      0.01         0.01
  YS02001779YS02001774        0.30      0.30      0.46      0.01         0.01
  YS02001783YS02001784        0.50      0.53      0.50      0.67         0.50
  YS02001784YS02001785        0.40      0.50      0.40      0.89         0.40
  YS02001786YS02001788        0.01      0.40      0.01      0.78         0.01
  YS02001790YS02001791        0.01      0.01      0.01      0.49         0.01
  YS02001793JiankangQianchi        0.01      0.01      7.20      0.01         0.01
  YS02001882YS02001884        0.47      0.47      0.49      0.01         0.01
  YS02001884YS02001887        0.51      0.51      0.52      0.01         0.01
  YS02001887YS02001890        0.53      0.53      0.54      0.13         0.01
  YS02001890YS02001895        0.46      0.46      0.56      0.01         0.01
  YS02001895YS02001898        0.46      0.46      0.46      0.01         0.01
  YS02001898YS02001901        0.47      0.47      0.50      0.01         0.01
  YS02001901YS02001904        0.50      0.50      0.50      0.01         0.01
  YS02001904YS02001907        0.50      0.50      0.76      0.01         0.01
  YS02001907YS02006553        0.90      0.90      0.97      0.01         0.01
  YS02001910YS02001907        0.56      0.56      0.74      0.01         0.01
  YS02001915YS02001910        0.47      0.47      0.56      0.01         0.01
  YS02001918YS02001915        0.39      0.39      0.47      0.01         0.01
  YS02001920YS02001918        0.39      0.39      0.40      0.01         0.01
  YS02001923YS02001920        0.35      0.35      0.40      0.01         0.01
  YS02001926YS02001923        0.12      0.12      0.15      0.01         0.01
  YS02001929YS02001926        0.01      0.01      0.15      0.01         0.01
  YS02006553YS02006556        0.65      0.65      0.76      0.01         0.01
  YS02006556YS02006558        0.70      0.70      0.77      0.01         0.01
  YS02006558YS02006561        0.42      0.64      0.42      0.85         0.42
  YS02006561YS02001783        0.35      0.35      0.53      0.01         0.01
  YS02163301YS02001633        0.81      0.81      0.85      0.01         0.01
  YS02163601YS02164001        0.75      0.75      0.86      0.20         0.01
  YS02164001YS02001641        0.73      0.75      0.73      0.71         0.54
  
  
  ***************
  Pumping Summary
  ***************
  
  ---------------------------------------------------------------------------------------------------------
                                                  Min       Avg       Max     Total     Power    % Time Off
                        Percent   Number of      Flow      Flow      Flow    Volume     Usage    Pump Curve
  Pump                 Utilized   Start-Ups       LPS       LPS       LPS  10^6 ltr     Kw-hr    Low   High
  ---------------------------------------------------------------------------------------------------------
  CC-R1                   23.86          44      0.00    683.00    683.00     4.693     82.06    0.0   55.2
  CC-R2                   24.15          46      0.00    683.00    683.00     4.749     82.83    0.0   55.8
  CC-S1                   24.90          45      0.00    200.00    200.00     1.434      9.01    0.0    0.0
  CC-S2                   12.96           3      0.00    200.00    200.00     0.747      4.43    0.0    0.0
  JK-R1                    0.27           3      0.00   1000.00   1000.00     0.078      0.55    0.0    0.0
  JK-R2                   13.54          51      0.00   1000.00   1000.00     3.901     33.27    0.0    0.0
  JK-S                     1.34           4      0.00    300.00    300.00     0.116      1.68    0.0    0.0
  

  Analysis begun on:  Mon Feb 24 09:45:07 2025
  Analysis ended on:  Mon Feb 24 09:45:09 2025
  Total elapsed time: 00:00:02