
  EPA STORM WATER MANAGEMENT MODEL - VERSION 5.2 (Build 5.2.4)
  PYSWMM TOOLKIT API - VERSION v1.0 (2023-11-27)
  ------------------------------------------------------------

  WARNING 04: minimum elevation drop used for Conduit WS02004404WS02004405
  WARNING 03: negative offset ignored for Link YS02001904YS02001907
  
  ****************
  Analysis Options
  ****************
  Flow Units ............... LPS
  Process Models:
    Rainfall/Runoff ........ YES
    RDII ................... NO
    Snowmelt ............... NO
    Groundwater ............ NO
    Flow Routing ........... YES
    Ponding Allowed ........ NO
    Water Quality .......... NO
  Infiltration Method ...... HORTON
  Flow Routing Method ...... DYNWAVE
  Surcharge Method ......... EXTRAN
  Starting Date ............ 08/28/2015 08:00:00
  Ending Date .............. 08/28/2015 16:00:00
  Antecedent Dry Days ...... 8.0
  Report Time Step ......... 00:01:00
  Wet Time Step ............ 00:01:00
  Dry Time Step ............ 00:01:00
  Routing Time Step ........ 30.00 sec
  Variable Time Step ....... YES
  Maximum Trials ........... 8
  Number of Threads ........ 4
  Head Tolerance ........... 0.001500 m
  
  
  **************************        Volume         Depth
  Runoff Quantity Continuity     hectare-m            mm
  **************************     ---------       -------
  Total Precipitation ......         2.746        82.775
  Evaporation Loss .........         0.000         0.000
  Infiltration Loss ........         0.102         3.071
  Surface Runoff ...........         2.611        78.727
  Final Storage ............         0.033         0.995
  Continuity Error (%) .....        -0.022
  
  
  **************************        Volume        Volume
  Flow Routing Continuity        hectare-m      10^6 ltr
  **************************     ---------     ---------
  Dry Weather Inflow .......         0.025         0.251
  Wet Weather Inflow .......         2.613        26.125
  Groundwater Inflow .......         0.000         0.000
  RDII Inflow ..............         0.000         0.000
  External Inflow ..........         0.083         0.834
  External Outflow .........         1.850        18.499
  Flooding Loss ............         0.941         9.415
  Evaporation Loss .........         0.000         0.000
  Exfiltration Loss ........         0.000         0.000
  Initial Stored Volume ....         0.243         2.431
  Final Stored Volume ......         0.181         1.810
  Continuity Error (%) .....        -0.279
  
  
  *************************
  Highest Continuity Errors
  *************************
  Node YS02001884 (5.03%)
  Node YS02001583 (-4.27%)
  Node WS02006256 (-2.17%)
  
  
  ***************************
  Time-Step Critical Elements
  ***************************
  Link WS02006252WS02006251 (31.95%)
  Link WS02004404WS02004405 (22.52%)
  Link WS02006238WS02006235 (13.76%)
  Link YS02001791YS02001793 (9.23%)
  Link WS02006235WS02006234 (6.31%)
  
  
  ********************************
  Highest Flow Instability Indexes
  ********************************
  Link WS02006113WS02006111 (37)
  Link WS02006111WS02006112 (19)
  Link WS02006256WS02006235 (17)
  Link YS02001602YS02001605 (15)
  Link YS02001607YS02001610 (15)
  
  
  *********************************
  Most Frequent Nonconverging Nodes
  *********************************
  Node CC-1 (14.41%)
  Node CC-2 (14.41%)
  Node JK-1 (14.41%)
  Node JK-2 (14.41%)
  Node WSC (14.41%)
  
  
  *************************
  Routing Time Step Summary
  *************************
  Minimum Time Step           :     0.01 sec
  Average Time Step           :     2.66 sec
  Maximum Time Step           :     6.43 sec
  % of Time in Steady State   :     0.00
  Average Iterations per Step :     3.37
  % of Steps Not Converging   :    14.41
  Time Step Frequencies       :
     30.000 - 13.228 sec      :     0.00 %
     13.228 -  5.833 sec      :    19.48 %
      5.833 -  2.572 sec      :    20.69 %
      2.572 -  1.134 sec      :    23.42 %
      1.134 -  0.500 sec      :    36.41 %
  
  
  ***************************
  Subcatchment Runoff Summary
  ***************************
  
  ------------------------------------------------------------------------------------------------------------------------------
                            Total      Total      Total      Total     Imperv       Perv      Total       Total     Peak  Runoff
                           Precip      Runon       Evap      Infil     Runoff     Runoff     Runoff      Runoff   Runoff   Coeff
  Subcatchment                 mm         mm         mm         mm         mm         mm         mm    10^6 ltr      LPS
  ------------------------------------------------------------------------------------------------------------------------------
  sub60                     82.77       0.00       0.00       1.84      71.64       8.10      79.74        1.05   715.37   0.963
  sub61                     82.77       0.00       0.00       2.67      67.58      11.41      78.99        1.45   993.77   0.954
  sub62                     82.77       0.00       0.00       1.23      74.87       5.40      80.27        2.20  1411.63   0.970
  sub63                     82.77       0.00       0.00       4.92      57.80      19.09      76.89        1.75  1133.71   0.929
  sub64                     82.77       0.00       0.00       2.49      69.16       9.93      79.09        1.90  1159.30   0.955
  sub65                     82.77       0.00       0.00       2.15      70.76       8.61      79.37        2.19  1294.82   0.959
  sub66                     82.77       0.00       0.00       6.12      57.70      17.89      75.59        3.52  1733.33   0.913
  sub67                     82.77       0.00       0.00       1.18      74.91       5.45      80.36        1.49  1072.52   0.971
  sub68                     82.77       0.00       0.00       2.21      70.00       9.38      79.39        2.18  1445.51   0.959
  sub69                     82.77       0.00       0.00       1.98      70.25      10.44      80.69        2.99  1721.99   0.975
  sub70                     82.77       0.00       0.00       6.64      54.47      21.50      75.97        2.19   975.02   0.918
  sub71                     82.77       0.00       0.00       1.26      74.83       5.37      80.20        2.10  1250.64   0.969
  sub72                     82.77       0.00       0.00       1.12      75.58       4.68      80.26        1.10   611.41   0.970
  
  
  ******************
  Node Depth Summary
  ******************
  
  ---------------------------------------------------------------------------------
                                 Average  Maximum  Maximum  Time of Max    Reported
                                   Depth    Depth      HGL   Occurrence   Max Depth
  Node                 Type       Meters   Meters   Meters  days hr:min      Meters
  ---------------------------------------------------------------------------------
  WS02003060           JUNCTION     0.19     0.38     5.31     0  02:24        0.38
  WS02003066           JUNCTION     0.17     0.29     5.85     0  02:23        0.29
  WS02003067           JUNCTION     0.45     0.70     6.02     0  02:23        0.69
  WS02003069           JUNCTION     0.22     0.42     5.01     0  02:24        0.42
  WS02003072           JUNCTION     0.27     0.49     4.86     0  02:25        0.49
  WS02003073           JUNCTION     0.15     0.29     4.36     0  02:25        0.29
  WS02004401           JUNCTION     0.52     0.85     6.85     0  02:20        0.85
  WS02004402           JUNCTION     0.56     0.87     6.83     0  02:20        0.87
  WS02004403           JUNCTION     0.58     0.89     6.82     0  02:21        0.89
  WS02004404           JUNCTION     0.66     0.96     6.81     0  02:21        0.96
  WS02004405           JUNCTION     0.65     0.95     6.80     0  02:21        0.95
  WS02004406           JUNCTION     0.67     0.95     6.78     0  02:21        0.95
  WS02004407           JUNCTION     0.14     0.29     6.61     0  02:21        0.29
  WS02004409           JUNCTION     0.32     0.66     6.43     0  02:22        0.66
  WS02004410           JUNCTION     0.35     0.67     6.39     0  02:22        0.67
  WS02004411           JUNCTION     0.37     0.68     6.36     0  02:22        0.68
  WS02004412           JUNCTION     0.40     0.69     6.33     0  02:22        0.69
  WS02004413           JUNCTION     0.55     0.85     6.32     0  02:23        0.85
  WS02006109           JUNCTION     0.58     1.10     7.72     0  02:13        0.98
  WS02006110           JUNCTION     0.59     1.11     7.70     0  02:13        0.93
  WS02006111           JUNCTION     0.15     0.29     6.99     0  02:18        0.29
  WS02006112           JUNCTION     0.67     1.05     6.93     0  02:20        1.04
  WS02006113           JUNCTION     0.22     0.46     7.35     0  02:15        0.45
  WS02006115           JUNCTION     0.41     0.75     6.88     0  02:20        0.74
  WS02006116           JUNCTION     0.49     0.83     6.87     0  02:20        0.82
  WS02006228           JUNCTION     0.56     1.11     7.76     0  02:13        1.02
  WS02006229           JUNCTION     0.53     1.14     7.83     0  02:13        1.02
  WS02006230           JUNCTION     0.52     1.29     8.03     0  02:13        1.11
  WS02006231           JUNCTION     0.33     1.01     8.13     0  02:13        0.85
  WS02006232           JUNCTION     0.46     1.70     8.73     0  03:30        1.05
  WS02006234           JUNCTION     0.37     1.56     8.72     0  03:30        1.06
  WS02006235           JUNCTION     0.40     1.49     8.65     0  03:30        1.15
  WS02006238           JUNCTION     0.43     1.42     8.57     0  03:30        1.18
  WS02006239           JUNCTION     0.40     1.73     8.93     0  03:30        1.19
  WS02006240           JUNCTION     0.38     1.96     9.25     0  03:30        1.15
  WS02006242           JUNCTION     0.45     1.55     8.82     0  03:30        1.23
  WS02006243           JUNCTION     0.37     1.48     8.90     0  03:30        1.13
  WS02006245           JUNCTION     0.37     1.16     8.64     0  02:12        1.11
  WS02006247           JUNCTION     0.40     1.15     8.65     0  02:12        1.13
  WS02006248           JUNCTION     0.36     1.09     8.68     0  02:13        1.08
  WS02006249           JUNCTION     0.39     1.09     8.69     0  02:08        1.09
  WS02006251           JUNCTION     0.39     1.35     9.02     0  02:08        1.12
  WS02006252           JUNCTION     0.29     1.50     9.74     0  00:00        0.67
  WS02006256           JUNCTION     0.69     2.35     9.28     0  00:00        2.35
  WSF200               JUNCTION     0.13     0.29     5.52     0  02:23        0.29
  YS02001580           JUNCTION     0.17     1.05     9.59     0  01:50        0.77
  YS02001583           JUNCTION     0.20     1.14     9.64     0  01:50        0.82
  YS02001586           JUNCTION     0.32     1.13     9.30     0  01:50        1.13
  YS02001590           JUNCTION     0.44     1.40     9.26     0  01:50        1.37
  YS02001593           JUNCTION     0.37     1.32     9.18     0  01:50        1.28
  YS02001596           JUNCTION     0.50     1.68     9.10     0  01:50        1.65
  YS02001600           JUNCTION     0.59     1.87     9.00     0  01:50        1.86
  YS02001601           JUNCTION     0.80     2.06     8.90     0  01:49        2.06
  YS02001602           JUNCTION     0.69     1.87     8.77     0  01:50        1.87
  YS02001605           JUNCTION     0.64     1.78     8.68     0  01:50        1.78
  YS02001607           JUNCTION     0.61     1.66     8.51     0  02:29        1.65
  YS02001610           JUNCTION     0.65     1.68     8.48     0  01:50        1.68
  YS02001613           JUNCTION     0.61     1.69     8.53     0  01:50        1.67
  YS02001616           JUNCTION     0.54     1.61     8.52     0  01:50        1.61
  YS02001619           JUNCTION     0.52     1.61     8.54     0  01:50        1.61
  YS02001622           JUNCTION     0.50     1.60     8.50     0  01:50        1.58
  YS02001625           JUNCTION     0.76     1.78     8.38     0  01:50        1.78
  YS02001629           JUNCTION     0.66     1.85     8.40     0  01:50        1.85
  YS02001633           JUNCTION     0.73     2.05     8.50     0  01:55        2.00
  YS02001641           JUNCTION     0.70     1.98     8.42     0  01:55        1.94
  YS02001644           JUNCTION     0.68     1.92     8.35     0  01:55        1.92
  YS02001647           JUNCTION     0.46     1.81     8.42     0  01:56        1.78
  YS02001649           JUNCTION     0.51     2.05     8.44     0  01:57        2.04
  YS02001652           JUNCTION     0.38     2.15     8.74     0  01:56        2.14
  YS02001655           JUNCTION     0.30     2.20     9.05     0  01:56        1.67
  YS02001658           JUNCTION     0.22     2.30     9.44     0  01:56        1.43
  YS02001661           JUNCTION     0.22     1.79     9.20     0  01:57        1.24
  YS02001664           JUNCTION     0.10     0.75     8.67     0  02:00        0.73
  YS02001745           JUNCTION     0.12     0.88     8.40     0  02:00        0.86
  YS02001748           JUNCTION     0.20     2.25     9.32     0  01:56        1.29
  YS02001751           JUNCTION     0.25     2.11     8.99     0  01:56        1.47
  YS02001754           JUNCTION     0.33     2.04     8.65     0  01:56        1.70
  YS02001757           JUNCTION     0.52     2.09     8.35     0  01:57        2.02
  YS02001759           JUNCTION     0.46     2.08     8.44     0  01:57        2.04
  YS02001762           JUNCTION     0.45     2.03     8.43     0  01:57        2.00
  YS02001765           JUNCTION     0.43     2.02     8.47     0  01:57        1.97
  YS02001767           JUNCTION     0.42     2.03     8.52     0  01:54        1.95
  YS02001770           JUNCTION     0.44     1.95     8.44     0  01:54        1.95
  YS02001774           JUNCTION     0.50     2.05     8.47     0  01:54        2.00
  YS02001779           JUNCTION     0.32     1.68     8.37     0  01:54        1.68
  YS02001783           JUNCTION     0.36     1.25     7.39     0  01:54        1.24
  YS02001784           JUNCTION     0.37     1.13     7.20     0  01:54        1.12
  YS02001786           JUNCTION     0.30     0.92     6.95     0  01:54        0.87
  YS02001788           JUNCTION     0.22     0.62     6.60     0  02:03        0.62
  YS02001790           JUNCTION     0.26     0.73     6.37     0  02:03        0.72
  YS02001791           JUNCTION     0.16     0.44     5.91     0  02:03        0.43
  YS02001793           JUNCTION     0.08     0.28     5.11     0  02:07        0.27
  YS02001882           JUNCTION     0.46     1.83     8.54     0  01:52        1.67
  YS02001884           JUNCTION     0.55     1.89     8.51     0  01:52        1.76
  YS02001887           JUNCTION     0.62     1.89     8.43     0  01:52        1.85
  YS02001890           JUNCTION     0.65     1.81     8.32     0  01:52        1.81
  YS02001895           JUNCTION     0.42     1.57     8.31     0  02:10        1.56
  YS02001898           JUNCTION     0.43     1.56     8.30     0  02:10        1.56
  YS02001901           JUNCTION     0.54     1.68     8.29     0  02:08        1.67
  YS02001904           JUNCTION     0.52     1.64     8.27     0  02:10        1.64
  YS02001907           JUNCTION     0.84     1.96     8.25     0  01:54        1.96
  YS02001910           JUNCTION     0.65     2.02     8.53     0  01:54        1.99
  YS02001915           JUNCTION     0.47     2.00     8.72     0  01:52        1.96
  YS02001918           JUNCTION     0.29     1.81     8.88     0  01:54        1.67
  YS02001920           JUNCTION     0.37     2.11     9.12     0  01:54        1.75
  YS02001923           JUNCTION     0.23     2.03     9.29     0  01:54        1.52
  YS02001926           JUNCTION     0.25     1.90     9.35     0  01:54        1.37
  YS02001929           JUNCTION     0.16     1.78     9.47     0  01:54        1.18
  YS02006553           JUNCTION     0.84     1.98     8.27     0  01:59        1.98
  YS02006556           JUNCTION     0.81     1.97     8.28     0  02:00        1.96
  YS02006558           JUNCTION     0.85     2.02     8.29     0  01:59        2.02
  YS02006561           JUNCTION     0.23     0.94     7.60     0  01:53        0.93
  YS02163301           JUNCTION     0.68     1.93     8.45     0  01:55        1.91
  YS02163601           JUNCTION     0.76     2.08     8.48     0  01:55        2.02
  YS02164001           JUNCTION     0.69     2.00     8.45     0  01:55        1.93
  CC-1                 OUTFALL      0.00     0.00     0.00     0  00:00        0.00
  CC-2                 OUTFALL      0.00     0.00     0.00     0  00:00        0.00
  JK-1                 OUTFALL      0.00     0.00     0.00     0  00:00        0.00
  JK-2                 OUTFALL      0.00     0.00     0.00     0  00:00        0.00
  WSC                  OUTFALL      0.15     0.29     0.96     0  02:26        0.29
  CC-storage           STORAGE      0.79     1.60     7.10     0  02:35        1.60
  JK-storage           STORAGE      1.66     4.00     4.80     0  02:12        3.96
  
  
  *******************
  Node Inflow Summary
  *******************
  
  -------------------------------------------------------------------------------------------------
                                  Maximum  Maximum                  Lateral       Total        Flow
                                  Lateral    Total  Time of Max      Inflow      Inflow     Balance
                                   Inflow   Inflow   Occurrence      Volume      Volume       Error
  Node                 Type           LPS      LPS  days hr:min    10^6 ltr    10^6 ltr     Percent
  -------------------------------------------------------------------------------------------------
  WS02003060           JUNCTION     16.53   540.04     0  02:23       0.476        3.68       0.056
  WS02003066           JUNCTION      0.00   522.83     0  02:23           0         3.2       0.038
  WS02003067           JUNCTION      0.00   522.57     0  02:23           0        3.21       0.126
  WS02003069           JUNCTION      0.32   539.98     0  02:24     0.00922        3.69       0.096
  WS02003072           JUNCTION      0.00   538.86     0  02:24           0        3.68       0.171
  WS02003073           JUNCTION      1.82   540.08     0  02:25      0.0524        3.73       0.135
  WS02004401           JUNCTION      0.00   534.47     0  02:20           0        3.31       0.302
  WS02004402           JUNCTION      0.00   533.95     0  02:20           0         3.3       0.308
  WS02004403           JUNCTION      0.00   533.08     0  02:20           0        3.29       0.302
  WS02004404           JUNCTION      0.16   533.04     0  02:21     0.00467        3.28       0.253
  WS02004405           JUNCTION      0.04   532.95     0  02:21      0.0011        3.27       0.375
  WS02004406           JUNCTION      0.00   532.96     0  02:21           0        3.26       0.628
  WS02004407           JUNCTION      0.00   532.52     0  02:21           0        3.24       0.030
  WS02004409           JUNCTION      0.00   532.19     0  02:21           0        3.24       0.070
  WS02004410           JUNCTION      0.00   529.54     0  02:22           0        3.24       0.122
  WS02004411           JUNCTION      0.00   526.94     0  02:22           0        3.23       0.160
  WS02004412           JUNCTION      0.00   524.83     0  02:22           0        3.23       0.218
  WS02004413           JUNCTION      0.00   523.71     0  02:23           0        3.22       0.397
  WS02006109           JUNCTION      1.23   551.99     0  02:13      0.0354        3.35       0.317
  WS02006110           JUNCTION      0.00   552.78     0  02:13           0        3.34       0.187
  WS02006111           JUNCTION      0.00   560.22     0  02:15           0        3.34       0.024
  WS02006112           JUNCTION      0.00   540.77     0  02:18           0        3.33       0.521
  WS02006113           JUNCTION      0.00   565.58     0  02:13           0        3.34       0.044
  WS02006115           JUNCTION      0.00   540.55     0  02:19           0        3.32       0.190
  WS02006116           JUNCTION      0.00   535.66     0  02:18           0        3.31       0.161
  WS02006228           JUNCTION      0.00   549.91     0  02:13           0        3.32       0.151
  WS02006229           JUNCTION      0.00   550.48     0  02:13           0        3.33       0.111
  WS02006230           JUNCTION     10.28   577.95     0  02:13       0.296        3.33       0.111
  WS02006231           JUNCTION      0.00   570.75     0  02:12           0        3.04       0.105
  WS02006232           JUNCTION      0.00   570.11     0  02:12           0        3.04       0.144
  WS02006234           JUNCTION      0.00   566.12     0  02:12           0        3.04      -0.143
  WS02006235           JUNCTION      0.00   560.32     0  02:12           0        3.06       0.199
  WS02006238           JUNCTION      0.00   424.01     0  02:10           0        2.86      -0.250
  WS02006239           JUNCTION      0.00   423.12     0  02:10           0        2.84      -0.306
  WS02006240           JUNCTION      0.00   419.31     0  02:10           0        2.84      -0.038
  WS02006242           JUNCTION      0.00   419.30     0  02:10           0        2.83      -0.032
  WS02006243           JUNCTION      0.00   419.37     0  02:10           0        2.83      -0.320
  WS02006245           JUNCTION      0.00   419.98     0  02:10           0        2.84       0.481
  WS02006247           JUNCTION      0.00   421.10     0  02:10           0        2.84       0.028
  WS02006248           JUNCTION      0.00   422.20     0  02:10           0        2.84      -0.120
  WS02006249           JUNCTION      0.00   471.65     0  00:10           0        2.89       0.534
  WS02006251           JUNCTION      0.08   405.96     0  02:08     0.00222        2.89       0.055
  WS02006252           JUNCTION      0.00   400.00     0  00:00           0        2.87      -0.582
  WS02006256           JUNCTION      0.00   300.00     0  00:00           0       0.275      -2.127
  WSF200               JUNCTION      0.00   523.01     0  02:23           0         3.2       0.012
  YS02001580           JUNCTION      0.00    90.75     0  01:50           0     0.00404      -0.957
  YS02001583           JUNCTION      0.00   146.84     0  01:50           0      0.0153      -4.095
  YS02001586           JUNCTION    975.02   975.02     0  02:04         2.2        2.21       0.036
  YS02001590           JUNCTION      0.00   319.44     0  02:29           0        1.52      -0.036
  YS02001593           JUNCTION      0.00   318.84     0  02:29           0        1.52      -0.008
  YS02001596           JUNCTION      0.00   318.04     0  02:09           0        1.52      -0.011
  YS02001600           JUNCTION      0.00   318.12     0  02:09           0        1.52      -0.007
  YS02001601           JUNCTION   1721.99  2039.61     0  02:03        2.99        4.51      -0.009
  YS02001602           JUNCTION      0.00   512.15     0  01:49           0        2.49       0.008
  YS02001605           JUNCTION      0.00   511.62     0  01:49           0        2.35       0.010
  YS02001607           JUNCTION      0.00   511.96     0  01:49           0        2.35       0.080
  YS02001610           JUNCTION      0.00   951.28     0  02:05           0        2.84       0.058
  YS02001613           JUNCTION      0.00   615.24     0  02:05           0        2.23       0.068
  YS02001616           JUNCTION      0.00   615.23     0  02:05           0        2.23       0.015
  YS02001619           JUNCTION   1733.33  1733.33     0  02:03        3.53        5.26      -0.003
  YS02001622           JUNCTION      0.00  1053.23     0  02:05           0        4.75      -0.001
  YS02001625           JUNCTION      0.00  1500.92     0  02:05           0        5.08       0.159
  YS02001629           JUNCTION      0.00   929.98     0  01:53           0        3.86       0.009
  YS02001633           JUNCTION   1295.02  1390.45     0  01:53        2.19        5.61       0.058
  YS02001641           JUNCTION      0.00  1390.43     0  01:53           0        5.18       0.051
  YS02001644           JUNCTION   1159.34  1808.86     0  01:53         1.9        7.07       0.032
  YS02001647           JUNCTION      0.00  1808.96     0  01:53           0        6.25       0.004
  YS02001649           JUNCTION      0.00  2065.72     0  01:53           0           8       0.002
  YS02001652           JUNCTION      0.00  1142.77     0  02:01           0        1.75      -0.064
  YS02001655           JUNCTION      0.15  1143.03     0  02:01     0.00443        1.75      -0.077
  YS02001658           JUNCTION      0.00  1142.78     0  02:01           0        1.75      -0.022
  YS02001661           JUNCTION      0.00  1142.78     0  02:01           0        1.75       0.007
  YS02001664           JUNCTION   1133.71  1133.71     0  02:02        1.75        1.75      -0.004
  YS02001745           JUNCTION    715.37   715.37     0  02:02        1.05        1.05       0.139
  YS02001748           JUNCTION      0.04   725.59     0  02:01      0.0013        1.05      -0.195
  YS02001751           JUNCTION      0.01   725.78     0  02:01    0.000317        1.05       0.084
  YS02001754           JUNCTION      0.26   726.06     0  02:01     0.00749        1.06      -0.148
  YS02001757           JUNCTION      0.00  3611.58     0  02:01           0        12.3       0.038
  YS02001759           JUNCTION    993.81  1505.62     0  02:01        1.45        3.26      -0.012
  YS02001762           JUNCTION      0.00   783.05     0  01:57           0        1.81      -0.009
  YS02001765           JUNCTION      0.00   783.21     0  01:57           0        1.81      -0.003
  YS02001767           JUNCTION      0.54   783.96     0  01:57      0.0154        1.81      -0.009
  YS02001770           JUNCTION   1411.78  1411.78     0  02:02         2.2        2.25      -0.010
  YS02001774           JUNCTION      0.00   847.54     0  02:03           0        0.46       0.226
  YS02001779           JUNCTION      0.01   847.70     0  02:03    0.000144       0.416      -0.187
  YS02001783           JUNCTION      0.00  1169.72     0  02:00           0        4.59       0.005
  YS02001784           JUNCTION      1.06  1170.97     0  02:00      0.0305        4.62       0.010
  YS02001786           JUNCTION      0.06  1170.80     0  01:59     0.00162        4.62       0.015
  YS02001788           JUNCTION      0.07  1170.96     0  02:00     0.00204        4.62       0.007
  YS02001790           JUNCTION      0.15  1172.63     0  02:00     0.00446        4.62       0.031
  YS02001791           JUNCTION      0.00  1286.91     0  02:03           0        4.62      -0.031
  YS02001793           JUNCTION      0.00  1243.05     0  02:05           0        4.62       0.005
  YS02001882           JUNCTION      0.00    36.32     0  01:51           0      0.0126       4.397
  YS02001884           JUNCTION      0.00    78.34     0  01:51           0      0.0485       5.295
  YS02001887           JUNCTION   1072.97  1073.21     0  02:01        1.51        1.54       0.281
  YS02001890           JUNCTION      0.00  1073.06     0  02:01           0         1.5       0.310
  YS02001895           JUNCTION      0.00   518.42     0  02:04           0        1.27       0.133
  YS02001898           JUNCTION      0.00   518.16     0  02:08           0        1.27       0.004
  YS02001901           JUNCTION      0.00   518.12     0  02:08           0        1.27       0.260
  YS02001904           JUNCTION      0.00   518.13     0  02:08           0        1.27       0.213
  YS02001907           JUNCTION      0.00  2668.01     0  02:02           0        4.62       0.352
  YS02001910           JUNCTION      0.00  1869.21     0  02:02           0        3.28       0.215
  YS02001915           JUNCTION   1250.66  1868.73     0  02:02         2.1        3.32       0.045
  YS02001918           JUNCTION      0.00   619.26     0  02:03           0        1.25      -0.002
  YS02001920           JUNCTION      2.87   618.70     0  02:03      0.0827        1.23       0.069
  YS02001923           JUNCTION      0.04   613.95     0  02:03     0.00109        1.13      -0.057
  YS02001926           JUNCTION      0.05   613.84     0  02:03      0.0015        1.11       0.023
  YS02001929           JUNCTION    611.41   611.41     0  02:03         1.1         1.1      -0.035
  YS02006553           JUNCTION      0.00   798.03     0  02:22           0        2.55       0.455
  YS02006556           JUNCTION      0.00   797.84     0  02:23           0        2.56       0.305
  YS02006558           JUNCTION   1446.39  1446.39     0  02:02        2.21        4.68       0.077
  YS02006561           JUNCTION      0.00  1169.71     0  02:00           0        4.58      -0.001
  YS02163301           JUNCTION      0.00   930.07     0  01:53           0        3.85       0.033
  YS02163601           JUNCTION      0.11  1390.40     0  01:53     0.00317        5.17       0.092
  YS02164001           JUNCTION      0.00  1390.42     0  01:53           0        5.17       0.042
  CC-1                 OUTFALL       0.00   683.00     0  00:00           0        4.81       0.000
  CC-2                 OUTFALL       0.00   683.00     0  00:00           0        5.51       0.000
  JK-1                 OUTFALL       0.00  1000.00     0  00:00           0      0.0964       0.000
  JK-2                 OUTFALL       0.00  1000.00     0  00:00           0        4.36       0.000
  WSC                  OUTFALL       0.00   538.71     0  02:26           0        3.72       0.000
  CC-storage           STORAGE       0.00  3611.82     0  02:01           0        14.6      -0.219
  JK-storage           STORAGE       0.00  1263.51     0  02:02           0        4.77      -0.329
  
  
  **********************
  Node Surcharge Summary
  **********************
  
  Surcharging occurs when water rises above the top of the highest conduit.
  ---------------------------------------------------------------------
                                               Max. Height   Min. Depth
                                   Hours       Above Crown    Below Rim
  Node                 Type      Surcharged         Meters       Meters
  ---------------------------------------------------------------------
  WS02006109           JUNCTION        1.24          0.284        1.536
  WS02006110           JUNCTION        0.11          0.202        1.648
  WS02006112           JUNCTION        0.09          0.049        1.631
  WS02006228           JUNCTION        1.23          0.279        1.921
  WS02006229           JUNCTION        1.24          0.337        2.113
  WS02006230           JUNCTION        0.11          0.208        1.362
  WS02006231           JUNCTION        0.14          0.297        1.233
  WS02006232           JUNCTION        1.30          0.996        0.484
  WS02006234           JUNCTION        0.23          0.841        0.399
  WS02006235           JUNCTION        1.23          0.777        0.513
  WS02006238           JUNCTION        1.25          0.702        0.728
  WS02006239           JUNCTION        1.23          0.985        0.305
  WS02006240           JUNCTION        1.23          1.246        0.144
  WS02006242           JUNCTION        1.32          0.820        0.000
  WS02006243           JUNCTION        1.22          0.770        0.000
  WS02006245           JUNCTION        1.21          0.447        0.403
  WS02006247           JUNCTION        1.21          0.443        0.317
  WS02006248           JUNCTION        1.20          0.370        0.010
  WS02006249           JUNCTION        1.20          0.390        0.000
  WS02006251           JUNCTION        0.15          0.319        0.861
  WS02006252           JUNCTION        1.72          1.100        0.000
  WS02006256           JUNCTION        5.48          2.050        0.000
  YS02001580           JUNCTION        0.80          0.450        0.000
  YS02001583           JUNCTION        0.80          0.500        0.000
  YS02001586           JUNCTION        0.92          0.510        0.000
  YS02001590           JUNCTION        1.00          0.750        0.000
  YS02001593           JUNCTION        1.00          0.697        0.143
  YS02001596           JUNCTION        1.12          0.947        0.123
  YS02001600           JUNCTION        1.29          1.190        0.000
  YS02001601           JUNCTION        1.59          1.440        0.000
  YS02001602           JUNCTION        1.49          1.270        0.000
  YS02001605           JUNCTION        1.45          1.180        0.000
  YS02001607           JUNCTION        0.97          0.661        0.019
  YS02001610           JUNCTION        1.00          0.680        0.000
  YS02001613           JUNCTION        0.96          0.686        0.014
  YS02001616           JUNCTION        0.91          0.610        0.000
  YS02001619           JUNCTION        0.90          0.610        0.000
  YS02001622           JUNCTION        0.89          0.599        0.021
  YS02001625           JUNCTION        1.09          0.780        0.000
  YS02001629           JUNCTION        0.84          0.470        0.000
  YS02001633           JUNCTION        1.11          1.029        0.031
  YS02001641           JUNCTION        1.05          0.979        0.121
  YS02001644           JUNCTION        1.01          0.920        0.000
  YS02001647           JUNCTION        0.77          0.813        0.087
  YS02001649           JUNCTION        0.89          1.050        0.000
  YS02001652           JUNCTION        0.67          1.118        0.012
  YS02001655           JUNCTION        0.49          1.200        0.000
  YS02001658           JUNCTION        0.29          1.300        0.000
  YS02001661           JUNCTION        0.10          0.721        0.669
  YS02001748           JUNCTION        0.21          1.167        0.023
  YS02001751           JUNCTION        0.36          1.112        0.088
  YS02001754           JUNCTION        0.55          0.987        0.163
  YS02001757           JUNCTION        0.96          1.089        0.121
  YS02001759           JUNCTION        0.85          1.075        0.135
  YS02001762           JUNCTION        0.82          1.033        0.117
  YS02001765           JUNCTION        0.77          1.019        0.081
  YS02001767           JUNCTION        0.73          1.030        0.000
  YS02001770           JUNCTION        0.69          0.920        0.000
  YS02001774           JUNCTION        0.80          1.050        0.000
  YS02001779           JUNCTION        0.55          0.680        0.000
  YS02001783           JUNCTION        0.67          0.450        1.150
  YS02001784           JUNCTION        0.65          0.333        1.157
  YS02001786           JUNCTION        0.53          0.122        1.308
  YS02001882           JUNCTION        0.61          0.828        0.002
  YS02001884           JUNCTION        0.63          0.831        0.039
  YS02001887           JUNCTION        0.66          0.840        0.110
  YS02001890           JUNCTION        0.68          0.760        0.000
  YS02001895           JUNCTION        0.60          0.567        0.183
  YS02001898           JUNCTION        0.59          0.535        0.205
  YS02001901           JUNCTION        0.65          0.677        0.193
  YS02001904           JUNCTION        0.64          0.640        0.210
  YS02001907           JUNCTION        0.91          0.950        0.000
  YS02001910           JUNCTION        0.71          1.021        0.079
  YS02001915           JUNCTION        0.61          1.000        0.000
  YS02001918           JUNCTION        0.52          0.810        0.000
  YS02001920           JUNCTION        0.53          1.114        0.026
  YS02001923           JUNCTION        0.21          0.820        0.000
  YS02001926           JUNCTION        0.23          0.900        0.000
  YS02001929           JUNCTION        0.08          0.780        0.000
  YS02006553           JUNCTION        0.93          0.982        0.208
  YS02006556           JUNCTION        0.81          0.926        0.424
  YS02006558           JUNCTION        0.80          0.924        0.476
  YS02006561           JUNCTION        0.48          0.140        1.010
  YS02163301           JUNCTION        1.09          0.933        0.097
  YS02163601           JUNCTION        1.14          1.080        0.000
  YS02164001           JUNCTION        1.05          0.996        0.104
  
  
  *********************
  Node Flooding Summary
  *********************
  
  Flooding refers to all water that overflows a node, whether it ponds or not.
  --------------------------------------------------------------------------
                                                             Total   Maximum
                                 Maximum   Time of Max       Flood    Ponded
                        Hours       Rate    Occurrence      Volume     Depth
  Node                 Flooded       LPS   days hr:min    10^6 ltr    Meters
  --------------------------------------------------------------------------
  WS02006242              0.01     47.33      0  03:30       0.000     0.000
  WS02006243              0.01     82.24      0  03:30       0.000     0.000
  WS02006249              0.15     92.22      0  02:08       0.036     0.000
  WS02006252              0.01    245.63      0  00:00       0.000     0.000
  WS02006256              0.25    293.19      0  00:00       0.086     0.000
  YS02001580              0.01     79.11      0  01:50       0.000     0.000
  YS02001583              0.01     76.61      0  01:50       0.000     0.000
  YS02001586              0.65    657.47      0  02:04       0.678     0.000
  YS02001600              0.01      0.90      0  01:50       0.000     0.000
  YS02001601              0.83   1641.71      0  02:03       2.016     0.000
  YS02001602              0.69     62.78      0  02:29       0.142     0.000
  YS02001605              0.01      3.07      0  01:50       0.000     0.000
  YS02001610              0.61    951.27      0  02:05       1.106     0.000
  YS02001616              0.01     16.52      0  01:50       0.000     0.000
  YS02001619              0.09     77.90      0  02:03       0.014     0.000
  YS02001625              0.57   1500.87      0  02:05       1.648     0.000
  YS02001629              0.21    247.15      0  02:02       0.110     0.000
  YS02001644              0.27   1607.18      0  02:02       0.812     0.000
  YS02001655              0.01     87.58      0  01:56       0.000     0.000
  YS02001658              0.01    296.92      0  01:56       0.000     0.000
  YS02001767              0.01    136.53      0  01:54       0.000     0.000
  YS02001770              0.06     76.11      0  02:02       0.009     0.000
  YS02001774              0.01     25.27      0  01:54       0.000     0.000
  YS02001779              0.24    847.62      0  02:03       0.398     0.000
  YS02001890              0.25    556.97      0  02:01       0.227     0.000
  YS02001907              0.46   2668.01      0  02:02       2.124     0.000
  YS02001915              0.01     92.07      0  01:52       0.000     0.000
  YS02001918              0.01     80.08      0  01:54       0.001     0.000
  YS02001923              0.01    253.99      0  01:54       0.000     0.000
  YS02001926              0.01    148.28      0  01:54       0.000     0.000
  YS02001929              0.01    336.09      0  01:54       0.002     0.000
  YS02163601              0.01      1.31      0  01:55       0.000     0.000
  
  
  **********************
  Storage Volume Summary
  **********************
  
  ------------------------------------------------------------------------------------------------
                         Average    Avg   Evap  Exfil     Maximum    Max    Time of Max    Maximum
                          Volume   Pcnt   Pcnt   Pcnt      Volume   Pcnt     Occurrence    Outflow
  Storage Unit           1000 m³   Full   Loss   Loss     1000 m³   Full    days hr:min        LPS
  ------------------------------------------------------------------------------------------------
  CC-storage               2.203   34.4    0.0    0.0       4.452   69.4       0  02:35    1783.53
  JK-storage               0.084   28.7    0.0    0.0       0.201   69.0       0  02:12    2300.00
  
  
  ***********************
  Outfall Loading Summary
  ***********************
  
  -----------------------------------------------------------
                         Flow       Avg       Max       Total
                         Freq      Flow      Flow      Volume
  Outfall Node           Pcnt       LPS       LPS    10^6 ltr
  -----------------------------------------------------------
  CC-1                  47.66    683.00    683.00       4.806
  CC-2                  55.13    683.00    683.00       5.514
  JK-1                   0.81   1000.00   1000.00       0.096
  JK-2                  30.10   1000.00   1000.00       4.358
  WSC                   99.94    190.91    538.71       3.724
  -----------------------------------------------------------
  System                46.73   3556.91   3366.23      18.499
  
  
  ********************
  Link Flow Summary
  ********************
  
  -----------------------------------------------------------------------------
                                 Maximum  Time of Max   Maximum    Max/    Max/
                                  |Flow|   Occurrence   |Veloc|    Full    Full
  Link                 Type          LPS  days hr:min     m/sec    Flow   Depth
  -----------------------------------------------------------------------------
  1                    CONDUIT    538.71     0  02:26      2.80    0.19    0.29
  WS02003060WS02003069 CONDUIT    539.66     0  02:24      1.63    0.21    0.33
  WS02003066WSF200     CONDUIT    523.01     0  02:23      2.83    0.09    0.22
  WS02003067WS02003066 CONDUIT    522.83     0  02:23      1.19    0.17    0.41
  WS02003069WS02003072 CONDUIT    538.86     0  02:24      1.36    0.26    0.38
  WS02003072WS02003073 CONDUIT    538.26     0  02:25      1.42    1.16    0.37
  WS02004401WS02004402 CONDUIT    533.95     0  02:20      0.98    0.64    0.86
  WS02004402WS02004403 CONDUIT    533.08     0  02:20      0.97    0.77    0.88
  WS02004403WS02004404 CONDUIT    532.88     0  02:21      0.92    0.39    0.92
  WS02004404WS02004405 CONDUIT    532.92     0  02:21      1.07    5.22    0.96
  WS02004405WS02004406 CONDUIT    532.96     0  02:21      0.98    1.05    0.95
  WS02004406WS02004407 CONDUIT    532.52     0  02:21      1.03    0.24    0.62
  WS02004407WS02004409 CONDUIT    532.19     0  02:21      1.50    0.19    0.47
  WS02004409WS02004410 CONDUIT    529.54     0  02:22      0.98    0.68    0.66
  WS02004410WS02004411 CONDUIT    526.94     0  02:22      0.93    0.72    0.68
  WS02004411WS02004412 CONDUIT    524.83     0  02:22      0.91    0.75    0.69
  WS02004412WS02004413 CONDUIT    523.71     0  02:23      0.81    0.35    0.77
  WS02004413WS02003067 CONDUIT    522.57     0  02:23      1.09    0.22    0.59
  WS02006109WS02006110 CONDUIT    552.78     0  02:13      1.10    1.06    1.00
  WS02006110WS02006113 CONDUIT    565.58     0  02:13      1.37    0.51    0.79
  WS02006111WS02006112 CONDUIT    540.77     0  02:18      1.82    0.26    0.67
  WS02006112WS02006115 CONDUIT    540.55     0  02:19      0.82    0.32    0.87
  WS02006113WS02006111 CONDUIT    560.22     0  02:15      2.46    0.67    0.46
  WS02006115WS02006116 CONDUIT    535.66     0  02:18      0.99    0.69    0.76
  WS02006116WS02004401 CONDUIT    534.47     0  02:20      0.98    0.74    0.84
  WS02006228WS02006109 CONDUIT    550.76     0  02:13      1.10    2.41    1.00
  WS02006229WS02006228 CONDUIT    549.91     0  02:13      1.14    1.82    1.00
  WS02006230WS02006229 CONDUIT    550.48     0  02:13      1.43   12.25    1.00
  WS02006231WS02006230 CONDUIT    567.67     0  02:13      1.55    8.61    1.00
  WS02006232WS02006231 CONDUIT    570.75     0  02:12      1.49    1.20    1.00
  WS02006234WS02006232 CONDUIT    570.11     0  02:12      1.48    1.15    1.00
  WS02006235WS02006234 CONDUIT    566.12     0  02:12      1.47    5.97    1.00
  WS02006238WS02006235 CONDUIT    424.99     0  02:10      1.45    0.95    1.00
  WS02006239WS02006238 CONDUIT    424.01     0  02:10      1.10    1.36    1.00
  WS02006240WS02006239 CONDUIT    423.12     0  02:10      1.24    1.33    1.00
  WS02006242WS02006240 CONDUIT    419.31     0  02:10      1.13    1.67    1.00
  WS02006243WS02006242 CONDUIT    419.30     0  02:10      1.40    0.90    1.00
  WS02006245WS02006243 CONDUIT    419.37     0  02:10      1.45    1.24    1.00
  WS02006247WS02006245 CONDUIT    419.98     0  02:10      1.43    3.33    1.00
  WS02006248WS02006247 CONDUIT    421.10     0  02:10      1.44    0.92    1.00
  WS02006249WS02006248 CONDUIT    422.20     0  02:10      1.39    2.31    1.00
  WS02006251WS02006249 CONDUIT    471.65     0  00:10      1.99    1.36    1.00
  WS02006252WS02006251 CONDUIT    405.88     0  02:08     24.61    1.49    1.00
  WS02006256WS02006235 CONDUIT    288.91     0  00:00      4.23    3.06    1.00
  WSF200WS02003060     CONDUIT    523.52     0  02:23      2.05    0.12    0.28
  YS02001580YS02001583 CONDUIT     90.75     0  01:50      0.60    0.35    1.00
  YS02001583YS02001586 CONDUIT    146.84     0  01:50      0.60    0.22    1.00
  YS02001586YS02001590 CONDUIT    319.44     0  02:29      1.26    0.56    1.00
  YS02001590YS02001593 CONDUIT    318.84     0  02:29      1.13    2.00    1.00
  YS02001593YS02001596 CONDUIT    318.04     0  02:09      1.76    0.50    1.00
  YS02001596YS02001600 CONDUIT    318.12     0  02:09      1.26    0.62    1.00
  YS02001600YS02001601 CONDUIT    317.99     0  02:11      1.12    0.55    1.00
  YS02001601YS02001602 CONDUIT    512.15     0  01:49      1.81    1.85    1.00
  YS02001602YS02001605 CONDUIT    511.62     0  01:49      1.81   10.83    1.00
  YS02001605YS02001607 CONDUIT    511.96     0  01:49      1.81    2.81    1.00
  YS02001607YS02001610 CONDUIT    512.24     0  01:49      0.65    0.49    1.00
  YS02001610YS02001613 CONDUIT    615.24     0  02:05      0.78    0.71    1.00
  YS02001613YS02001616 CONDUIT    615.24     0  02:05      0.78    0.53    1.00
  YS02001616YS02001619 CONDUIT    615.23     0  02:05      0.78    1.07    1.00
  YS02001619YS02001622 CONDUIT   1053.23     0  02:05      1.34    1.55    1.00
  YS02001622YS02001625 CONDUIT   1053.23     0  02:05      1.34    0.56    1.00
  YS02001625YS02001629 CONDUIT    929.98     0  01:53      1.18    0.44    1.00
  YS02001629YS02163301 CONDUIT    930.07     0  01:53      1.18    1.15    1.00
  YS02001633YS02163601 CONDUIT   1390.29     0  01:53      1.77    1.46    1.00
  YS02001641YS02001644 CONDUIT   1389.96     0  01:53      1.77    4.49    1.00
  YS02001644YS02001647 CONDUIT   1808.96     0  01:53      2.30    1.06    1.00
  YS02001647YS02001649 CONDUIT   1821.33     0  01:53      2.35    0.96    1.00
  YS02001649YS02001757 CONDUIT   2053.99     0  01:53      2.63    1.25    1.00
  YS02001652YS02001649 CONDUIT   1142.93     0  02:01      1.46    0.57    1.00
  YS02001655YS02001652 CONDUIT   1142.77     0  02:01      1.46    0.55    1.00
  YS02001658YS02001655 CONDUIT   1142.87     0  02:01      1.90    0.48    1.00
  YS02001661YS02001658 CONDUIT   1142.78     0  02:01      2.32    0.45    1.00
  YS02001664YS02001661 CONDUIT   1142.78     0  02:01      2.33    0.36    0.87
  YS02001745YS02001748 CONDUIT    725.55     0  02:01      2.19    0.28    0.94
  YS02001748YS02001751 CONDUIT    725.77     0  02:01      1.71    0.37    1.00
  YS02001751YS02001754 CONDUIT    725.80     0  02:01      1.46    0.35    1.00
  YS02001754YS02001757 CONDUIT    725.99     0  02:01      0.92    0.29    1.00
  YS02001757CaochengTiaoxuchi CONDUIT   3611.82     0  02:01      4.63    1.56    1.00
  YS02001759YS02001757 CONDUIT   1505.94     0  02:01      1.92    1.07    1.00
  YS02001762YS02001759 CONDUIT    782.98     0  01:57      1.00    0.90    1.00
  YS02001765YS02001762 CONDUIT    783.05     0  01:57      1.00    0.73    1.00
  YS02001767YS02001765 CONDUIT    783.21     0  01:57      1.00    0.99    1.00
  YS02001770YS02001767 CONDUIT    783.43     0  01:57      1.00    3.10    1.00
  YS02001774YS02001770 CONDUIT    847.54     0  02:03      1.08    0.54    1.00
  YS02001779YS02001774 CONDUIT    847.70     0  02:03      1.08    0.43    1.00
  YS02001783YS02001784 CONDUIT   1169.91     0  02:00      2.33    1.61    1.00
  YS02001784YS02001785 CONDUIT   1170.74     0  01:59      2.33    2.72    1.00
  YS02001786YS02001788 CONDUIT   1170.89     0  02:00      2.49    2.26    0.89
  YS02001788YS02001790 CONDUIT   1172.48     0  02:00      2.72    0.86    0.84
  YS02001790YS02001791 CONDUIT   1286.91     0  02:03      3.42    1.40    0.71
  YS02001791YS02001793 CONDUIT   1243.05     0  02:05      6.70    0.53    0.44
  YS02001793JiankangQianchi CONDUIT   1263.51     0  02:02      2.52    0.10    0.64
  YS02001882YS02001884 CONDUIT     36.32     0  01:51      0.15    0.04    1.00
  YS02001884YS02001887 CONDUIT     78.34     0  01:51      0.11    0.10    1.00
  YS02001887YS02001890 CONDUIT   1073.06     0  02:01      1.37    1.84    1.00
  YS02001890YS02001895 CONDUIT    518.42     0  02:04      0.66    0.24    1.00
  YS02001895YS02001898 CONDUIT    518.16     0  02:08      0.66    0.90    1.00
  YS02001898YS02001901 CONDUIT    518.12     0  02:08      0.66    0.33    1.00
  YS02001901YS02001904 CONDUIT    518.13     0  02:08      0.66    0.80    1.00
  YS02001904YS02001907 CONDUIT    518.42     0  02:04      0.66    0.18    1.00
  YS02001907YS02006553 CONDUIT    798.03     0  02:22      0.89    0.94    1.00
  YS02001910YS02001907 CONDUIT   1870.20     0  02:02      2.38    1.05    1.00
  YS02001915YS02001910 CONDUIT   1869.21     0  02:02      2.38    0.93    1.00
  YS02001918YS02001915 CONDUIT    620.34     0  02:03      0.79    0.34    1.00
  YS02001920YS02001918 CONDUIT    619.26     0  02:03      0.79    0.60    1.00
  YS02001923YS02001920 CONDUIT    615.83     0  02:03      0.78    0.28    1.00
  YS02001926YS02001923 CONDUIT    613.91     0  02:03      0.95    0.88    1.00
  YS02001929YS02001926 CONDUIT    613.79     0  02:03      1.11    0.29    1.00
  YS02006553YS02006556 CONDUIT    797.84     0  02:23      1.02    0.68    1.00
  YS02006556YS02006558 CONDUIT    799.02     0  02:23      1.02    0.63    1.00
  YS02006558YS02006561 CONDUIT   1169.71     0  02:00      4.14    2.59    1.00
  YS02006561YS02001783 CONDUIT   1169.72     0  02:00      2.33    0.61    1.00
  YS02163301YS02001633 CONDUIT    930.50     0  01:53      1.18    0.87    1.00
  YS02163601YS02164001 CONDUIT   1390.42     0  01:53      1.77    1.23    1.00
  YS02164001YS02001641 CONDUIT   1390.43     0  01:53      1.77    1.90    1.00
  CC-R1                PUMP       683.00     0  00:00              1.00
  CC-R2                PUMP       683.00     0  00:00              1.00
  CC-S1                PUMP       200.00     0  00:00              1.00
  CC-S2                PUMP       200.00     0  00:00              1.00
  JK-R1                PUMP      1000.00     0  00:00              1.00
  JK-R2                PUMP      1000.00     0  00:00              1.00
  JK-S                 PUMP       300.00     0  00:00              1.00
  
  
  ***************************
  Flow Classification Summary
  ***************************
  
  -------------------------------------------------------------------------------------
                      Adjusted    ---------- Fraction of Time in Flow Class ---------- 
                       /Actual         Up    Down  Sub   Sup   Up    Down  Norm  Inlet 
  Conduit               Length    Dry  Dry   Dry   Crit  Crit  Crit  Crit  Ltd   Ctrl  
  -------------------------------------------------------------------------------------
  1                       1.00   0.00  0.00  0.00  0.00  1.00  0.00  0.00  0.52  0.00
  WS02003060WS02003069    1.00   0.00  0.00  0.00  0.98  0.02  0.00  0.00  0.74  0.00
  WS02003066WSF200        1.00   0.08  0.00  0.00  0.00  0.92  0.00  0.00  0.89  0.00
  WS02003067WS02003066    1.00   0.07  0.01  0.00  0.92  0.00  0.00  0.00  0.00  0.00
  WS02003069WS02003072    1.00   0.00  0.00  0.00  0.99  0.01  0.00  0.00  0.81  0.00
  WS02003072WS02003073    1.00   0.00  0.00  0.00  0.00  0.00  0.00  1.00  0.00  0.00
  WS02004401WS02004402    1.00   0.02  0.00  0.00  0.98  0.00  0.00  0.00  0.00  0.00
  WS02004402WS02004403    1.00   0.02  0.00  0.00  0.97  0.00  0.00  0.00  0.00  0.00
  WS02004403WS02004404    1.00   0.00  0.03  0.00  0.97  0.00  0.00  0.00  0.00  0.00
  WS02004404WS02004405    1.00   0.00  0.00  0.00  1.00  0.00  0.00  0.00  0.00  0.00
  WS02004405WS02004406    1.00   0.00  0.00  0.00  1.00  0.00  0.00  0.00  0.00  0.00
  WS02004406WS02004407    1.00   0.00  0.04  0.00  0.96  0.00  0.00  0.00  0.00  0.00
  WS02004407WS02004409    1.00   0.04  0.00  0.00  0.95  0.01  0.00  0.00  0.95  0.00
  WS02004409WS02004410    1.00   0.04  0.00  0.00  0.96  0.00  0.00  0.00  0.00  0.00
  WS02004410WS02004411    1.00   0.04  0.00  0.00  0.96  0.00  0.00  0.00  0.00  0.00
  WS02004411WS02004412    1.00   0.05  0.00  0.00  0.95  0.00  0.00  0.00  0.00  0.00
  WS02004412WS02004413    1.00   0.05  0.00  0.00  0.95  0.00  0.00  0.00  0.00  0.00
  WS02004413WS02003067    1.00   0.05  0.02  0.00  0.00  0.00  0.93  0.00  0.00  0.00
  WS02006109WS02006110    1.00   0.00  0.01  0.00  0.98  0.00  0.01  0.00  0.00  0.00
  WS02006110WS02006113    1.00   0.01  0.01  0.00  0.98  0.00  0.00  0.00  0.00  0.00
  WS02006111WS02006112    1.00   0.02  0.00  0.00  0.98  0.00  0.00  0.00  0.98  0.00
  WS02006112WS02006115    1.00   0.02  0.00  0.00  0.97  0.00  0.00  0.00  0.00  0.00
  WS02006113WS02006111    1.00   0.02  0.00  0.00  0.00  0.98  0.00  0.00  0.10  0.00
  WS02006115WS02006116    1.00   0.02  0.00  0.00  0.97  0.00  0.00  0.01  0.00  0.00
  WS02006116WS02004401    1.00   0.02  0.00  0.00  0.98  0.00  0.00  0.00  0.00  0.00
  WS02006228WS02006109    1.00   0.00  0.00  0.00  1.00  0.00  0.00  0.00  0.00  0.00
  WS02006229WS02006228    1.00   0.00  0.00  0.00  0.99  0.00  0.00  0.01  0.00  0.00
  WS02006230WS02006229    1.00   0.00  0.00  0.00  0.99  0.00  0.00  0.01  0.01  0.00
  WS02006231WS02006230    1.00   0.00  0.00  0.00  0.20  0.00  0.80  0.00  0.00  0.00
  WS02006232WS02006231    1.00   0.00  0.00  0.00  0.99  0.00  0.00  0.00  0.00  0.00
  WS02006234WS02006232    1.00   0.00  0.00  0.00  1.00  0.00  0.00  0.00  0.25  0.00
  WS02006235WS02006234    1.00   0.00  0.00  0.00  0.58  0.00  0.42  0.00  0.00  0.00
  WS02006238WS02006235    1.00   0.00  0.00  0.00  1.00  0.00  0.00  0.00  0.00  0.00
  WS02006239WS02006238    1.00   0.00  0.00  0.00  1.00  0.00  0.00  0.00  0.36  0.00
  WS02006240WS02006239    1.00   0.00  0.00  0.00  0.40  0.00  0.00  0.59  0.01  0.00
  WS02006242WS02006240    1.00   0.00  0.00  0.00  0.99  0.00  0.00  0.00  0.00  0.00
  WS02006243WS02006242    1.00   0.00  0.00  0.00  0.99  0.00  0.00  0.00  0.66  0.00
  WS02006245WS02006243    1.00   0.00  0.00  0.00  0.70  0.00  0.00  0.30  0.01  0.00
  WS02006247WS02006245    1.00   0.00  0.00  0.00  0.98  0.00  0.00  0.02  0.00  0.00
  WS02006248WS02006247    1.00   0.00  0.00  0.00  0.99  0.00  0.00  0.01  0.56  0.00
  WS02006249WS02006248    1.00   0.00  0.00  0.00  0.35  0.00  0.65  0.00  0.00  0.00
  WS02006251WS02006249    1.00   0.00  0.00  0.00  1.00  0.00  0.00  0.00  0.61  0.00
  WS02006252WS02006251    1.00   0.00  0.63  0.00  0.02  0.00  0.35  0.00  0.00  0.00
  WS02006256WS02006235    1.00   0.00  0.00  0.00  1.00  0.00  0.00  0.00  0.00  0.00
  WSF200WS02003060        1.00   0.00  0.08  0.00  0.57  0.35  0.00  0.00  0.68  0.00
  YS02001580YS02001583    1.00   0.23  0.56  0.00  0.22  0.00  0.00  0.00  0.65  0.00
  YS02001583YS02001586    1.00   0.41  0.32  0.00  0.27  0.00  0.00  0.00  0.65  0.00
  YS02001586YS02001590    1.00   0.13  0.00  0.00  0.44  0.04  0.00  0.39  0.35  0.00
  YS02001590YS02001593    1.00   0.13  0.01  0.00  0.14  0.00  0.73  0.00  0.00  0.00
  YS02001593YS02001596    1.00   0.13  0.00  0.00  0.16  0.01  0.00  0.70  0.02  0.00
  YS02001596YS02001600    1.00   0.13  0.00  0.00  0.21  0.01  0.00  0.64  0.04  0.00
  YS02001600YS02001601    1.00   0.13  0.01  0.00  0.86  0.00  0.00  0.00  0.59  0.00
  YS02001601YS02001602    1.00   0.13  0.01  0.00  0.87  0.00  0.00  0.00  0.00  0.00
  YS02001602YS02001605    1.00   0.13  0.00  0.00  0.87  0.00  0.00  0.00  0.00  0.00
  YS02001605YS02001607    1.00   0.14  0.00  0.00  0.86  0.00  0.00  0.00  0.00  0.00
  YS02001607YS02001610    1.00   0.13  0.01  0.00  0.86  0.00  0.00  0.00  0.01  0.00
  YS02001610YS02001613    1.00   0.13  0.00  0.00  0.87  0.00  0.00  0.00  0.00  0.00
  YS02001613YS02001616    1.00   0.13  0.00  0.00  0.87  0.00  0.00  0.00  0.00  0.00
  YS02001616YS02001619    1.00   0.13  0.00  0.00  0.87  0.00  0.00  0.00  0.00  0.00
  YS02001619YS02001622    1.00   0.13  0.00  0.00  0.87  0.00  0.00  0.00  0.28  0.00
  YS02001622YS02001625    1.00   0.13  0.00  0.00  0.87  0.00  0.00  0.00  0.04  0.00
  YS02001625YS02001629    1.00   0.13  0.04  0.00  0.18  0.00  0.65  0.00  0.00  0.00
  YS02001629YS02163301    1.00   0.15  0.01  0.00  0.84  0.00  0.00  0.00  0.00  0.00
  YS02001633YS02163601    1.00   0.00  0.01  0.00  0.99  0.00  0.00  0.00  0.15  0.00
  YS02001641YS02001644    1.00   0.00  0.01  0.00  0.99  0.00  0.00  0.00  0.00  0.00
  YS02001644YS02001647    1.00   0.00  0.17  0.00  0.83  0.00  0.00  0.00  0.00  0.00
  YS02001647YS02001649    1.00   0.00  0.16  0.00  0.55  0.28  0.00  0.00  0.56  0.00
  YS02001649YS02001757    1.00   0.00  0.00  0.00  0.68  0.32  0.00  0.00  0.46  0.00
  YS02001652YS02001649    1.00   0.00  0.00  0.00  0.97  0.03  0.00  0.00  0.73  0.00
  YS02001655YS02001652    1.00   0.00  0.00  0.00  0.20  0.01  0.00  0.79  0.05  0.00
  YS02001658YS02001655    1.00   0.00  0.14  0.00  0.68  0.19  0.00  0.00  0.66  0.00
  YS02001661YS02001658    1.00   0.14  0.00  0.00  0.51  0.35  0.00  0.00  0.68  0.00
  YS02001664YS02001661    1.00   0.13  0.00  0.00  0.75  0.12  0.00  0.00  0.84  0.00
  YS02001745YS02001748    1.00   0.00  0.00  0.00  0.11  0.01  0.00  0.88  0.05  0.00
  YS02001748YS02001751    1.00   0.00  0.00  0.00  0.84  0.16  0.00  0.00  0.76  0.00
  YS02001751YS02001754    1.00   0.00  0.00  0.00  0.17  0.00  0.00  0.82  0.02  0.00
  YS02001754YS02001757    1.00   0.00  0.00  0.00  1.00  0.00  0.00  0.00  0.81  0.00
  YS02001757CaochengTiaoxuchi    1.00   0.00  0.00  0.00  0.95  0.05  0.00  0.00  0.79  0.00
  YS02001759YS02001757    1.00   0.00  0.00  0.00  0.99  0.01  0.00  0.00  0.60  0.00
  YS02001762YS02001759    1.00   0.00  0.00  0.00  1.00  0.00  0.00  0.00  0.04  0.00
  YS02001765YS02001762    1.00   0.00  0.00  0.00  1.00  0.00  0.00  0.00  0.72  0.00
  YS02001767YS02001765    1.00   0.00  0.00  0.00  1.00  0.00  0.00  0.00  0.00  0.00
  YS02001770YS02001767    1.00   0.00  0.00  0.00  1.00  0.00  0.00  0.00  0.00  0.00
  YS02001774YS02001770    1.00   0.00  0.13  0.00  0.70  0.00  0.16  0.00  0.03  0.00
  YS02001779YS02001774    1.00   0.00  0.00  0.00  1.00  0.00  0.00  0.00  0.77  0.00
  YS02001783YS02001784    1.00   0.00  0.17  0.00  0.83  0.00  0.00  0.00  0.55  0.00
  YS02001784YS02001785    1.00   0.00  0.00  0.00  1.00  0.00  0.00  0.00  0.16  0.00
  YS02001786YS02001788    1.00   0.00  0.00  0.00  0.80  0.20  0.00  0.00  0.00  0.00
  YS02001788YS02001790    1.00   0.00  0.00  0.00  0.20  0.80  0.00  0.00  0.79  0.00
  YS02001790YS02001791    1.00   0.00  0.00  0.00  0.01  0.99  0.00  0.00  0.16  0.00
  YS02001791YS02001793    1.00   0.00  0.00  0.00  0.00  1.00  0.00  0.00  0.01  0.00
  YS02001793JiankangQianchi    1.00   0.00  0.00  0.00  0.96  0.04  0.00  0.00  0.96  0.00
  YS02001882YS02001884    1.00   0.15  0.01  0.00  0.84  0.00  0.00  0.00  0.00  0.00
  YS02001884YS02001887    1.00   0.06  0.05  0.00  0.89  0.00  0.00  0.00  0.00  0.00
  YS02001887YS02001890    1.00   0.00  0.00  0.00  0.97  0.00  0.03  0.00  0.00  0.00
  YS02001890YS02001895    1.00   0.00  0.16  0.00  0.84  0.00  0.00  0.00  0.00  0.00
  YS02001895YS02001898    1.00   0.16  0.00  0.00  0.82  0.00  0.02  0.00  0.00  0.00
  YS02001898YS02001901    1.00   0.16  0.00  0.00  0.84  0.00  0.00  0.00  0.01  0.00
  YS02001901YS02001904    1.00   0.16  0.00  0.00  0.84  0.00  0.00  0.00  0.00  0.00
  YS02001904YS02001907    1.00   0.00  0.16  0.00  0.84  0.00  0.00  0.00  0.00  0.00
  YS02001907YS02006553    1.00   0.00  0.02  0.00  0.98  0.00  0.00  0.00  0.00  0.00
  YS02001910YS02001907    1.00   0.00  0.00  0.00  0.97  0.00  0.00  0.03  0.12  0.00
  YS02001915YS02001910    1.00   0.00  0.00  0.00  0.97  0.03  0.00  0.00  0.15  0.00
  YS02001918YS02001915    1.00   0.00  0.01  0.00  0.98  0.02  0.00  0.00  0.73  0.00
  YS02001920YS02001918    1.00   0.00  0.01  0.00  0.99  0.00  0.00  0.00  0.00  0.00
  YS02001923YS02001920    1.00   0.00  0.00  0.00  1.00  0.00  0.00  0.00  0.91  0.00
  YS02001926YS02001923    1.00   0.00  0.07  0.00  0.08  0.00  0.85  0.00  0.00  0.00
  YS02001929YS02001926    1.00   0.00  0.13  0.00  0.87  0.00  0.00  0.00  0.80  0.00
  YS02006553YS02006556    1.00   0.01  0.00  0.00  0.99  0.00  0.00  0.00  0.03  0.00
  YS02006556YS02006558    1.00   0.00  0.00  0.00  1.00  0.00  0.00  0.00  0.00  0.00
  YS02006558YS02006561    1.00   0.17  0.00  0.00  0.07  0.76  0.00  0.00  0.18  0.00
  YS02006561YS02001783    1.00   0.17  0.00  0.00  0.11  0.72  0.00  0.00  0.67  0.00
  YS02163301YS02001633    1.00   0.00  0.15  0.00  0.85  0.00  0.00  0.00  0.00  0.00
  YS02163601YS02164001    1.00   0.00  0.08  0.00  0.92  0.00  0.00  0.00  0.00  0.00
  YS02164001YS02001641    1.00   0.01  0.07  0.00  0.92  0.00  0.00  0.00  0.05  0.00
  
  
  *************************
  Conduit Surcharge Summary
  *************************
  
  ----------------------------------------------------------------------------
                                                           Hours        Hours 
                         --------- Hours Full --------   Above Full   Capacity
  Conduit                Both Ends  Upstream  Dnstream   Normal Flow   Limited
  ----------------------------------------------------------------------------
  WS02003072WS02003073        0.01      0.01      0.01      0.16         0.01
  WS02004404WS02004405        0.01      0.01      0.01      2.17         0.01
  WS02004405WS02004406        0.01      0.01      0.01      0.08         0.01
  WS02006109WS02006110        0.11      0.11      1.29      0.13         0.01
  WS02006110WS02006113        0.01      0.01      1.25      0.01         0.01
  WS02006111WS02006112        0.01      0.01      1.79      0.01         0.01
  WS02006112WS02006115        0.01      0.01      0.09      0.01         0.01
  WS02006228WS02006109        1.24      1.29      1.24      1.84         1.24
  WS02006229WS02006228        1.23      1.24      1.23      1.72         1.23
  WS02006230WS02006229        1.49      1.68      1.49      2.77         1.49
  WS02006231WS02006230        0.11      0.11      0.15      2.55         0.01
  WS02006232WS02006231        0.14      0.14      1.30      0.17         0.01
  WS02006234WS02006232        1.22      1.22      1.30      0.17         0.16
  WS02006235WS02006234        0.22      0.23      1.23      2.35         0.01
  WS02006238WS02006235        1.24      1.24      1.32      0.01         0.01
  WS02006239WS02006238        1.24      1.27      1.25      1.51         1.19
  WS02006240WS02006239        1.22      1.23      1.23      1.51         1.16
  WS02006242WS02006240        1.23      1.23      1.44      1.76         0.01
  WS02006243WS02006242        1.22      1.22      1.32      0.01         0.01
  WS02006245WS02006243        1.21      1.21      1.22      1.38         1.11
  WS02006247WS02006245        1.21      1.23      1.21      2.21         1.20
  WS02006248WS02006247        1.20      1.20      1.21      0.01         0.01
  WS02006249WS02006248        1.20      1.20      1.20      2.13         0.01
  WS02006251WS02006249        1.20      1.20      1.20      1.61         1.18
  WS02006252WS02006251        1.66      1.66      1.72      1.67         0.01
  WS02006256WS02006235        2.42      2.44      5.46      0.26         0.01
  YS02001580YS02001583        0.80      0.80      0.84      0.01         0.01
  YS02001583YS02001586        0.80      0.80      0.92      0.01         0.01
  YS02001586YS02001590        0.92      0.92      1.00      0.01         0.01
  YS02001590YS02001593        1.00      1.00      1.02      1.05         0.01
  YS02001593YS02001596        1.01      1.01      1.12      0.01         0.01
  YS02001596YS02001600        1.17      1.17      1.29      0.01         0.01
  YS02001600YS02001601        1.35      1.35      1.59      0.01         0.01
  YS02001601YS02001602        1.49      1.49      1.62      1.30         0.01
  YS02001602YS02001605        1.45      1.45      1.49      2.38         0.01
  YS02001605YS02001607        1.41      1.45      1.41      1.55         1.41
  YS02001607YS02001610        0.97      0.97      1.00      0.01         0.01
  YS02001610YS02001613        0.96      0.96      1.00      0.01         0.01
  YS02001613YS02001616        0.91      0.91      0.96      0.01         0.01
  YS02001616YS02001619        0.90      0.90      0.91      0.08         0.12
  YS02001619YS02001622        0.89      0.90      0.89      1.03         0.87
  YS02001622YS02001625        0.89      0.89      1.09      0.01         0.01
  YS02001625YS02001629        0.84      0.84      1.09      0.01         0.01
  YS02001629YS02163301        1.08      1.08      1.09      0.28         0.25
  YS02001633YS02163601        1.11      1.11      1.14      0.45         0.44
  YS02001641YS02001644        1.01      1.05      1.01      1.65         1.00
  YS02001644YS02001647        0.77      0.77      1.01      0.04         0.01
  YS02001647YS02001649        0.77      0.77      0.89      0.01         0.01
  YS02001649YS02001757        0.89      0.89      0.96      0.12         0.11
  YS02001652YS02001649        0.70      0.70      0.89      0.01         0.01
  YS02001655YS02001652        0.49      0.49      0.67      0.01         0.01
  YS02001658YS02001655        0.29      0.29      0.49      0.01         0.01
  YS02001661YS02001658        0.10      0.10      0.29      0.01         0.01
  YS02001664YS02001661        0.01      0.01      0.16      0.01         0.01
  YS02001745YS02001748        0.01      0.01      0.21      0.01         0.01
  YS02001748YS02001751        0.27      0.27      0.36      0.01         0.01
  YS02001751YS02001754        0.36      0.36      0.55      0.01         0.01
  YS02001754YS02001757        0.60      0.60      0.96      0.01         0.01
  YS02001757CaochengTiaoxuchi        0.83      0.96      1.30      0.51         0.34
  YS02001759YS02001757        0.85      0.85      0.96      0.10         0.11
  YS02001762YS02001759        0.82      0.82      0.85      0.01         0.02
  YS02001765YS02001762        0.77      0.77      0.82      0.01         0.01
  YS02001767YS02001765        0.73      0.73      0.77      0.01         0.03
  YS02001770YS02001767        0.73      0.73      0.73      0.69         0.55
  YS02001774YS02001770        0.69      0.69      0.80      0.01         0.01
  YS02001779YS02001774        0.55      0.55      0.80      0.01         0.01
  YS02001783YS02001784        0.65      0.67      0.65      0.84         0.65
  YS02001784YS02001785        0.53      0.65      0.53      1.10         0.53
  YS02001786YS02001788        0.01      0.53      0.01      0.95         0.01
  YS02001790YS02001791        0.01      0.01      0.01      0.63         0.01
  YS02001793JiankangQianchi        0.01      0.01      7.04      0.01         0.01
  YS02001882YS02001884        0.61      0.61      0.63      0.01         0.01
  YS02001884YS02001887        0.65      0.65      0.66      0.01         0.01
  YS02001887YS02001890        0.68      0.68      0.69      0.19         0.01
  YS02001890YS02001895        0.60      0.60      0.71      0.01         0.01
  YS02001895YS02001898        0.60      0.60      0.60      0.01         0.01
  YS02001898YS02001901        0.60      0.60      0.65      0.01         0.01
  YS02001901YS02001904        0.64      0.64      0.65      0.01         0.01
  YS02001904YS02001907        0.64      0.64      0.93      0.01         0.01
  YS02001907YS02006553        1.12      1.12      1.19      0.01         0.01
  YS02001910YS02001907        0.71      0.71      0.91      0.06         0.06
  YS02001915YS02001910        0.61      0.61      0.71      0.01         0.01
  YS02001918YS02001915        0.52      0.52      0.61      0.01         0.01
  YS02001920YS02001918        0.52      0.52      0.53      0.01         0.01
  YS02001923YS02001920        0.47      0.47      0.53      0.01         0.01
  YS02001926YS02001923        0.21      0.21      0.23      0.01         0.01
  YS02001929YS02001926        0.08      0.08      0.23      0.01         0.01
  YS02006553YS02006556        0.81      0.81      0.93      0.01         0.01
  YS02006556YS02006558        0.87      0.87      0.95      0.01         0.01
  YS02006558YS02006561        0.56      0.80      0.56      1.05         0.56
  YS02006561YS02001783        0.48      0.48      0.67      0.01         0.01
  YS02163301YS02001633        1.09      1.09      1.13      0.01         0.01
  YS02163601YS02164001        1.05      1.05      1.14      0.09         0.01
  YS02164001YS02001641        1.05      1.05      1.05      0.83         0.74
  
  
  ***************
  Pumping Summary
  ***************
  
  ---------------------------------------------------------------------------------------------------------
                                                  Min       Avg       Max     Total     Power    % Time Off
                        Percent   Number of      Flow      Flow      Flow    Volume     Usage    Pump Curve
  Pump                 Utilized   Start-Ups       LPS       LPS       LPS  10^6 ltr     Kw-hr    Low   High
  ---------------------------------------------------------------------------------------------------------
  CC-R1                   24.73          41      0.00    683.00    683.00     4.865     88.01    0.0   34.4
  CC-R2                   28.33          42      0.00    683.00    683.00     5.573    100.23    0.0   42.8
  CC-S1                   29.23          41      0.00    200.00    200.00     1.683      9.94    0.0    0.0
  CC-S2                   20.88           7      0.00    200.00    200.00     1.203      6.81    0.0    0.0
  JK-R1                    0.34           4      0.00   1000.00   1000.00     0.098      0.66    0.0    0.0
  JK-R2                   15.34          45      0.00   1000.00   1000.00     4.418     41.56    0.0    0.0
  JK-S                     3.16           9      0.00    300.00    300.00     0.273      4.22    0.0    0.0
  

  Analysis begun on:  Mon Feb 24 09:44:47 2025
  Analysis ended on:  Mon Feb 24 09:44:48 2025
  Total elapsed time: 00:00:01