
  EPA STORM WATER MANAGEMENT MODEL - VERSION 5.2 (Build 5.2.4)
  PYSWMM TOOLKIT API - VERSION v1.0 (2023-11-27)
  ------------------------------------------------------------

  WARNING 04: minimum elevation drop used for Conduit WS02004404WS02004405
  WARNING 03: negative offset ignored for Link YS02001904YS02001907
  
  ****************
  Analysis Options
  ****************
  Flow Units ............... LPS
  Process Models:
    Rainfall/Runoff ........ YES
    RDII ................... NO
    Snowmelt ............... NO
    Groundwater ............ NO
    Flow Routing ........... YES
    Ponding Allowed ........ NO
    Water Quality .......... NO
  Infiltration Method ...... HORTON
  Flow Routing Method ...... DYNWAVE
  Surcharge Method ......... EXTRAN
  Starting Date ............ 08/28/2015 08:00:00
  Ending Date .............. 08/28/2015 16:00:00
  Antecedent Dry Days ...... 8.0
  Report Time Step ......... 00:01:00
  Wet Time Step ............ 00:01:00
  Dry Time Step ............ 00:01:00
  Routing Time Step ........ 30.00 sec
  Variable Time Step ....... YES
  Maximum Trials ........... 8
  Number of Threads ........ 4
  Head Tolerance ........... 0.001500 m
  
  
  **************************        Volume         Depth
  Runoff Quantity Continuity     hectare-m            mm
  **************************     ---------       -------
  Total Precipitation ......         2.296        69.221
  Evaporation Loss .........         0.000         0.000
  Infiltration Loss ........         0.103         3.093
  Surface Runoff ...........         2.161        65.148
  Final Storage ............         0.033         0.996
  Continuity Error (%) .....        -0.024
  
  
  **************************        Volume        Volume
  Flow Routing Continuity        hectare-m      10^6 ltr
  **************************     ---------     ---------
  Dry Weather Inflow .......         0.025         0.251
  Wet Weather Inflow .......         2.162        21.621
  Groundwater Inflow .......         0.000         0.000
  RDII Inflow ..............         0.000         0.000
  External Inflow ..........         0.083         0.834
  External Outflow .........         1.694        16.941
  Flooding Loss ............         0.645         6.452
  Evaporation Loss .........         0.000         0.000
  Exfiltration Loss ........         0.000         0.000
  Initial Stored Volume ....         0.243         2.431
  Final Stored Volume ......         0.181         1.808
  Continuity Error (%) .....        -0.259
  
  
  *************************
  Highest Continuity Errors
  *************************
  Node YS02001884 (5.15%)
  Node YS02001583 (-3.82%)
  Node WS02006256 (-1.93%)
  
  
  ***************************
  Time-Step Critical Elements
  ***************************
  Link WS02006252WS02006251 (42.80%)
  Link WS02004404WS02004405 (21.05%)
  Link WS02006238WS02006235 (9.03%)
  Link YS02001791YS02001793 (6.58%)
  Link WS02006235WS02006234 (5.93%)
  
  
  ********************************
  Highest Flow Instability Indexes
  ********************************
  Link WS02006113WS02006111 (34)
  Link WS02006111WS02006112 (15)
  Link YS02006558YS02006561 (13)
  Link WS02006256WS02006235 (12)
  Link YS02001602YS02001605 (11)
  
  
  *********************************
  Most Frequent Nonconverging Nodes
  *********************************
  Node CC-1 (11.94%)
  Node CC-2 (11.94%)
  Node JK-1 (11.94%)
  Node JK-2 (11.94%)
  Node WSC (11.94%)
  
  
  *************************
  Routing Time Step Summary
  *************************
  Minimum Time Step           :     0.02 sec
  Average Time Step           :     2.49 sec
  Maximum Time Step           :     6.43 sec
  % of Time in Steady State   :     0.00
  Average Iterations per Step :     3.14
  % of Steps Not Converging   :    11.94
  Time Step Frequencies       :
     30.000 - 13.228 sec      :     0.00 %
     13.228 -  5.833 sec      :    18.13 %
      5.833 -  2.572 sec      :    20.10 %
      2.572 -  1.134 sec      :    13.72 %
      1.134 -  0.500 sec      :    48.05 %
  
  
  ***************************
  Subcatchment Runoff Summary
  ***************************
  
  ------------------------------------------------------------------------------------------------------------------------------
                            Total      Total      Total      Total     Imperv       Perv      Total       Total     Peak  Runoff
                           Precip      Runon       Evap      Infil     Runoff     Runoff     Runoff      Runoff   Runoff   Coeff
  Subcatchment                 mm         mm         mm         mm         mm         mm         mm    10^6 ltr      LPS
  ------------------------------------------------------------------------------------------------------------------------------
  sub60                     69.22       0.00       0.00       1.83      59.72       6.48      66.20        0.87   653.10   0.956
  sub61                     69.22       0.00       0.00       2.66      56.33       9.11      65.44        1.20   908.71   0.945
  sub62                     69.22       0.00       0.00       1.22      62.40       4.32      66.72        1.83  1279.29   0.964
  sub63                     69.22       0.00       0.00       4.96      48.18      15.12      63.30        1.44  1039.26   0.915
  sub64                     69.22       0.00       0.00       2.50      57.63       7.89      65.52        1.57  1050.58   0.947
  sub65                     69.22       0.00       0.00       2.16      58.97       6.84      65.81        1.81  1172.64   0.951
  sub66                     69.22       0.00       0.00       6.20      48.07      13.88      61.95        2.89  1579.01   0.895
  sub67                     69.22       0.00       0.00       1.17      62.44       4.37      66.82        1.24   971.92   0.965
  sub68                     69.22       0.00       0.00       2.20      58.35       7.49      65.84        1.81  1314.08   0.951
  sub69                     69.22       0.00       0.00       2.00      58.73       8.39      67.12        2.48  1556.60   0.970
  sub70                     69.22       0.00       0.00       6.73      45.52      16.81      62.33        1.80   885.47   0.900
  sub71                     69.22       0.00       0.00       1.25      62.36       4.28      66.64        1.74  1130.99   0.963
  sub72                     69.22       0.00       0.00       1.12      62.97       3.73      66.70        0.92   549.34   0.964
  
  
  ******************
  Node Depth Summary
  ******************
  
  ---------------------------------------------------------------------------------
                                 Average  Maximum  Maximum  Time of Max    Reported
                                   Depth    Depth      HGL   Occurrence   Max Depth
  Node                 Type       Meters   Meters   Meters  days hr:min      Meters
  ---------------------------------------------------------------------------------
  WS02003060           JUNCTION     0.18     0.36     5.29     0  02:39        0.36
  WS02003066           JUNCTION     0.16     0.28     5.84     0  02:39        0.28
  WS02003067           JUNCTION     0.42     0.68     6.00     0  02:38        0.68
  WS02003069           JUNCTION     0.20     0.40     4.99     0  02:40        0.40
  WS02003072           JUNCTION     0.26     0.47     4.84     0  02:41        0.47
  WS02003073           JUNCTION     0.14     0.28     4.34     0  02:42        0.28
  WS02004401           JUNCTION     0.50     0.83     6.83     0  02:36        0.82
  WS02004402           JUNCTION     0.53     0.85     6.81     0  02:36        0.85
  WS02004403           JUNCTION     0.55     0.87     6.80     0  02:36        0.86
  WS02004404           JUNCTION     0.63     0.94     6.79     0  02:36        0.94
  WS02004405           JUNCTION     0.63     0.94     6.79     0  02:36        0.94
  WS02004406           JUNCTION     0.64     0.94     6.77     0  02:36        0.94
  WS02004407           JUNCTION     0.13     0.29     6.60     0  02:37        0.29
  WS02004409           JUNCTION     0.29     0.62     6.39     0  02:37        0.62
  WS02004410           JUNCTION     0.32     0.64     6.36     0  02:38        0.64
  WS02004411           JUNCTION     0.35     0.65     6.33     0  02:38        0.65
  WS02004412           JUNCTION     0.37     0.66     6.30     0  02:38        0.66
  WS02004413           JUNCTION     0.53     0.82     6.29     0  02:38        0.82
  WS02006109           JUNCTION     0.56     1.06     7.67     0  03:21        0.98
  WS02006110           JUNCTION     0.58     1.03     7.62     0  03:21        0.93
  WS02006111           JUNCTION     0.14     0.29     6.99     0  02:35        0.28
  WS02006112           JUNCTION     0.65     1.02     6.90     0  02:35        1.01
  WS02006113           JUNCTION     0.22     0.46     7.35     0  02:35        0.45
  WS02006115           JUNCTION     0.38     0.72     6.86     0  02:35        0.72
  WS02006116           JUNCTION     0.47     0.80     6.84     0  02:35        0.80
  WS02006228           JUNCTION     0.55     1.08     7.73     0  03:21        1.02
  WS02006229           JUNCTION     0.51     1.09     7.78     0  03:20        1.03
  WS02006230           JUNCTION     0.50     1.22     7.97     0  03:20        1.15
  WS02006231           JUNCTION     0.32     1.01     8.13     0  03:31        0.91
  WS02006232           JUNCTION     0.44     1.50     8.54     0  03:30        1.12
  WS02006234           JUNCTION     0.35     1.69     8.84     0  03:30        1.14
  WS02006235           JUNCTION     0.39     1.73     8.90     0  03:30        1.23
  WS02006238           JUNCTION     0.41     1.77     8.91     0  03:30        1.26
  WS02006239           JUNCTION     0.38     1.72     8.93     0  03:30        1.24
  WS02006240           JUNCTION     0.35     1.61     8.90     0  03:30        1.20
  WS02006242           JUNCTION     0.42     1.55     8.82     0  03:30        1.27
  WS02006243           JUNCTION     0.33     1.33     8.75     0  03:30        1.16
  WS02006245           JUNCTION     0.34     1.20     8.69     0  03:30        1.14
  WS02006247           JUNCTION     0.36     1.17     8.67     0  03:30        1.14
  WS02006248           JUNCTION     0.33     1.09     8.68     0  03:21        1.09
  WS02006249           JUNCTION     0.36     1.09     8.69     0  02:30        1.09
  WS02006251           JUNCTION     0.36     1.38     9.05     0  02:30        1.13
  WS02006252           JUNCTION     0.28     1.50     9.74     0  00:00        0.68
  WS02006256           JUNCTION     0.72     2.35     9.28     0  00:00        2.35
  WSF200               JUNCTION     0.12     0.27     5.51     0  02:39        0.27
  YS02001580           JUNCTION     0.15     1.05     9.59     0  02:10        0.81
  YS02001583           JUNCTION     0.18     1.14     9.64     0  02:10        0.84
  YS02001586           JUNCTION     0.31     1.13     9.30     0  02:10        1.13
  YS02001590           JUNCTION     0.43     1.39     9.25     0  02:10        1.38
  YS02001593           JUNCTION     0.36     1.31     9.17     0  02:10        1.28
  YS02001596           JUNCTION     0.49     1.68     9.09     0  02:10        1.65
  YS02001600           JUNCTION     0.59     1.87     9.00     0  02:10        1.87
  YS02001601           JUNCTION     0.80     2.06     8.90     0  02:10        2.06
  YS02001602           JUNCTION     0.69     1.87     8.77     0  02:10        1.87
  YS02001605           JUNCTION     0.64     1.78     8.68     0  02:37        1.78
  YS02001607           JUNCTION     0.59     1.67     8.51     0  02:17        1.67
  YS02001610           JUNCTION     0.63     1.68     8.48     0  02:10        1.68
  YS02001613           JUNCTION     0.59     1.69     8.53     0  02:17        1.69
  YS02001616           JUNCTION     0.52     1.61     8.52     0  02:23        1.61
  YS02001619           JUNCTION     0.50     1.61     8.54     0  02:17        1.61
  YS02001622           JUNCTION     0.49     1.59     8.50     0  02:19        1.59
  YS02001625           JUNCTION     0.73     1.78     8.38     0  02:15        1.78
  YS02001629           JUNCTION     0.64     1.85     8.40     0  02:17        1.85
  YS02001633           JUNCTION     0.71     2.03     8.49     0  02:28        1.99
  YS02001641           JUNCTION     0.67     2.00     8.43     0  02:28        1.94
  YS02001644           JUNCTION     0.66     1.92     8.35     0  02:18        1.92
  YS02001647           JUNCTION     0.42     1.82     8.43     0  02:19        1.75
  YS02001649           JUNCTION     0.47     2.05     8.44     0  02:20        1.98
  YS02001652           JUNCTION     0.34     2.10     8.69     0  02:19        1.83
  YS02001655           JUNCTION     0.26     2.18     9.03     0  02:19        1.64
  YS02001658           JUNCTION     0.19     2.21     9.35     0  02:19        1.41
  YS02001661           JUNCTION     0.21     1.21     8.61     0  02:24        1.20
  YS02001664           JUNCTION     0.09     0.67     8.59     0  02:24        0.65
  YS02001745           JUNCTION     0.11     0.83     8.35     0  02:24        0.82
  YS02001748           JUNCTION     0.17     2.26     9.34     0  02:20        1.25
  YS02001751           JUNCTION     0.21     2.16     9.04     0  02:20        1.43
  YS02001754           JUNCTION     0.28     2.09     8.70     0  02:20        1.68
  YS02001757           JUNCTION     0.47     2.11     8.37     0  02:20        2.00
  YS02001759           JUNCTION     0.41     2.13     8.50     0  02:20        2.01
  YS02001762           JUNCTION     0.40     2.10     8.50     0  02:28        1.99
  YS02001765           JUNCTION     0.38     2.07     8.52     0  02:28        1.95
  YS02001767           JUNCTION     0.37     2.01     8.50     0  02:28        1.92
  YS02001770           JUNCTION     0.39     1.95     8.44     0  02:17        1.95
  YS02001774           JUNCTION     0.45     2.05     8.47     0  02:17        1.99
  YS02001779           JUNCTION     0.27     1.68     8.37     0  02:17        1.68
  YS02001783           JUNCTION     0.37     1.44     7.58     0  02:16        1.26
  YS02001784           JUNCTION     0.37     1.25     7.32     0  02:16        1.15
  YS02001786           JUNCTION     0.31     0.93     6.96     0  02:16        0.87
  YS02001788           JUNCTION     0.22     0.62     6.60     0  02:24        0.62
  YS02001790           JUNCTION     0.26     0.72     6.37     0  02:26        0.72
  YS02001791           JUNCTION     0.16     0.44     5.91     0  02:31        0.44
  YS02001793           JUNCTION     0.09     0.28     5.11     0  02:27        0.28
  YS02001882           JUNCTION     0.45     1.83     8.55     0  02:28        1.73
  YS02001884           JUNCTION     0.54     1.91     8.52     0  02:28        1.78
  YS02001887           JUNCTION     0.61     1.92     8.46     0  02:19        1.92
  YS02001890           JUNCTION     0.64     1.81     8.32     0  02:14        1.81
  YS02001895           JUNCTION     0.42     1.62     8.36     0  02:19        1.62
  YS02001898           JUNCTION     0.42     1.60     8.34     0  02:19        1.60
  YS02001901           JUNCTION     0.53     1.73     8.34     0  02:19        1.73
  YS02001904           JUNCTION     0.51     1.64     8.27     0  02:16        1.63
  YS02001907           JUNCTION     0.82     1.96     8.25     0  02:16        1.96
  YS02001910           JUNCTION     0.63     1.97     8.48     0  02:17        1.94
  YS02001915           JUNCTION     0.46     1.91     8.63     0  02:17        1.88
  YS02001918           JUNCTION     0.27     1.81     8.88     0  02:16        1.57
  YS02001920           JUNCTION     0.35     2.14     9.15     0  02:17        1.65
  YS02001923           JUNCTION     0.22     2.03     9.29     0  02:17        1.41
  YS02001926           JUNCTION     0.24     1.90     9.35     0  02:16        1.25
  YS02001929           JUNCTION     0.15     1.78     9.47     0  02:17        1.02
  YS02006553           JUNCTION     0.82     2.04     8.32     0  02:19        2.04
  YS02006556           JUNCTION     0.79     2.06     8.37     0  02:16        2.04
  YS02006558           JUNCTION     0.84     2.12     8.39     0  02:16        2.07
  YS02006561           JUNCTION     0.23     1.24     7.90     0  02:16        0.90
  YS02163301           JUNCTION     0.66     1.93     8.45     0  02:28        1.90
  YS02163601           JUNCTION     0.73     2.08     8.48     0  02:28        2.01
  YS02164001           JUNCTION     0.66     2.02     8.48     0  02:28        1.93
  CC-1                 OUTFALL      0.00     0.00     0.00     0  00:00        0.00
  CC-2                 OUTFALL      0.00     0.00     0.00     0  00:00        0.00
  JK-1                 OUTFALL      0.00     0.00     0.00     0  00:00        0.00
  JK-2                 OUTFALL      0.00     0.00     0.00     0  00:00        0.00
  WSC                  OUTFALL      0.14     0.28     0.95     0  02:42        0.28
  CC-storage           STORAGE      0.69     1.45     6.95     0  02:49        1.45
  JK-storage           STORAGE      1.71     4.00     4.80     0  02:21        3.98
  
  
  *******************
  Node Inflow Summary
  *******************
  
  -------------------------------------------------------------------------------------------------
                                  Maximum  Maximum                  Lateral       Total        Flow
                                  Lateral    Total  Time of Max      Inflow      Inflow     Balance
                                   Inflow   Inflow   Occurrence      Volume      Volume       Error
  Node                 Type           LPS      LPS  days hr:min    10^6 ltr    10^6 ltr     Percent
  -------------------------------------------------------------------------------------------------
  WS02003060           JUNCTION     16.53   495.20     0  02:39       0.476        3.31       0.062
  WS02003066           JUNCTION      0.00   476.62     0  02:39           0        2.84       0.043
  WS02003067           JUNCTION      0.00   475.58     0  02:39           0        2.84       0.142
  WS02003069           JUNCTION      0.32   495.98     0  02:39     0.00922        3.32       0.106
  WS02003072           JUNCTION      0.00   492.97     0  02:40           0        3.31       0.190
  WS02003073           JUNCTION      1.82   492.34     0  02:41      0.0524        3.36       0.150
  WS02004401           JUNCTION      0.00   523.51     0  02:35           0        2.94       0.340
  WS02004402           JUNCTION      0.00   518.82     0  02:36           0        2.93       0.347
  WS02004403           JUNCTION      0.00   515.77     0  02:36           0        2.92       0.340
  WS02004404           JUNCTION      0.16   512.73     0  02:36     0.00467        2.91       0.287
  WS02004405           JUNCTION      0.04   512.16     0  02:36      0.0011         2.9       0.421
  WS02004406           JUNCTION      0.00   511.84     0  02:36           0        2.89       0.708
  WS02004407           JUNCTION      0.00   510.03     0  02:36           0        2.87       0.033
  WS02004409           JUNCTION      0.00   508.35     0  02:37           0        2.87       0.078
  WS02004410           JUNCTION      0.00   497.48     0  02:37           0        2.87       0.138
  WS02004411           JUNCTION      0.00   490.81     0  02:37           0        2.87       0.181
  WS02004412           JUNCTION      0.00   484.88     0  02:38           0        2.86       0.246
  WS02004413           JUNCTION      0.00   479.61     0  02:38           0        2.85       0.449
  WS02006109           JUNCTION      1.23   543.55     0  03:21      0.0354        2.99       0.357
  WS02006110           JUNCTION      0.00   544.89     0  03:21           0        2.97       0.210
  WS02006111           JUNCTION      0.00   559.25     0  02:33           0        2.97       0.029
  WS02006112           JUNCTION      0.00   542.30     0  02:35           0        2.97       0.588
  WS02006113           JUNCTION      0.00   558.16     0  03:21           0        2.97       0.048
  WS02006115           JUNCTION      0.00   539.62     0  02:35           0        2.95       0.213
  WS02006116           JUNCTION      0.00   529.59     0  02:35           0        2.94       0.175
  WS02006228           JUNCTION      0.00   542.22     0  02:31           0        2.95       0.164
  WS02006229           JUNCTION      0.00   542.58     0  03:21           0        2.96       0.118
  WS02006230           JUNCTION     10.28   580.66     0  03:20       0.296        2.96       0.166
  WS02006231           JUNCTION      0.00   570.49     0  03:20           0        2.67       0.044
  WS02006232           JUNCTION      0.00   569.41     0  03:20           0        2.67       0.161
  WS02006234           JUNCTION      0.00   565.27     0  03:20           0        2.67      -0.163
  WS02006235           JUNCTION      0.00   558.40     0  03:20           0        2.69       0.197
  WS02006238           JUNCTION      0.00   421.23     0  02:35           0        2.45      -0.134
  WS02006239           JUNCTION      0.00   420.87     0  02:35           0        2.44      -0.214
  WS02006240           JUNCTION      0.00   418.74     0  02:35           0        2.43      -0.038
  WS02006242           JUNCTION      0.00   418.86     0  02:35           0        2.43      -0.040
  WS02006243           JUNCTION      0.00   418.04     0  02:35           0        2.42      -0.252
  WS02006245           JUNCTION      0.00   417.70     0  02:35           0        2.44       0.559
  WS02006247           JUNCTION      0.00   417.04     0  02:35           0        2.44       0.010
  WS02006248           JUNCTION      0.00   433.04     0  03:37           0        2.43      -0.271
  WS02006249           JUNCTION      0.00   459.02     0  00:00           0        2.47       0.754
  WS02006251           JUNCTION      0.08   407.07     0  02:30     0.00222        2.47       0.018
  WS02006252           JUNCTION      0.00   400.00     0  00:00           0        2.45      -0.674
  WS02006256           JUNCTION      0.00   300.00     0  00:00           0        0.32      -1.898
  WSF200               JUNCTION      0.00   476.52     0  02:39           0        2.83       0.014
  YS02001580           JUNCTION      0.00    74.28     0  02:10           0     0.00409       0.250
  YS02001583           JUNCTION      0.00   121.02     0  02:10           0      0.0156      -3.679
  YS02001586           JUNCTION    885.47   885.47     0  02:26         1.8        1.81       0.034
  YS02001590           JUNCTION      0.00   317.92     0  02:34           0        1.36      -0.040
  YS02001593           JUNCTION      0.00   318.00     0  02:32           0        1.36      -0.001
  YS02001596           JUNCTION      0.00   318.05     0  02:41           0        1.36      -0.009
  YS02001600           JUNCTION      0.00   317.96     0  02:30           0        1.36       0.011
  YS02001601           JUNCTION   1556.60  1874.10     0  02:25        2.49        3.84      -0.004
  YS02001602           JUNCTION      0.00   494.46     0  02:10           0        2.33       0.013
  YS02001605           JUNCTION      0.00   494.35     0  02:10           0        2.23       0.017
  YS02001607           JUNCTION      0.00   494.07     0  02:10           0        2.23       0.085
  YS02001610           JUNCTION      0.00   888.79     0  02:26           0        2.54       0.066
  YS02001613           JUNCTION      0.00   552.52     0  02:26           0        2.08       0.077
  YS02001616           JUNCTION      0.00   552.29     0  02:26           0        2.08       0.016
  YS02001619           JUNCTION   1579.01  1579.01     0  02:26        2.89        4.66      -0.001
  YS02001622           JUNCTION      0.00  1033.23     0  02:25           0        4.35      -0.000
  YS02001625           JUNCTION      0.00  1453.41     0  02:26           0        4.57       0.182
  YS02001629           JUNCTION      0.00   935.97     0  02:15           0        3.68       0.039
  YS02001633           JUNCTION   1172.84  1376.35     0  02:15        1.82        5.22       0.069
  YS02001641           JUNCTION      0.00  1375.78     0  02:15           0        4.95       0.055
  YS02001644           JUNCTION   1050.62  1772.34     0  02:15        1.58        6.52       0.041
  YS02001647           JUNCTION      0.00  1772.21     0  02:15           0        6.06       0.006
  YS02001649           JUNCTION      0.00  2042.22     0  02:16           0        7.51       0.002
  YS02001652           JUNCTION      0.00  1054.92     0  02:25           0        1.44      -0.070
  YS02001655           JUNCTION      0.15  1054.97     0  02:25     0.00443        1.44       0.015
  YS02001658           JUNCTION      0.00  1054.82     0  02:25           0        1.44      -0.012
  YS02001661           JUNCTION      0.00  1053.59     0  02:25           0        1.44      -0.005
  YS02001664           JUNCTION   1039.26  1039.26     0  02:25        1.44        1.44      -0.005
  YS02001745           JUNCTION    653.11   653.11     0  02:25        0.87        0.87       0.148
  YS02001748           JUNCTION      0.04   665.60     0  02:25      0.0013       0.871      -0.226
  YS02001751           JUNCTION      0.01   664.44     0  02:25    0.000317       0.875       0.104
  YS02001754           JUNCTION      0.26   664.73     0  02:25     0.00749       0.882      -0.118
  YS02001757           JUNCTION      0.00  3568.34     0  02:24           0        11.2       0.054
  YS02001759           JUNCTION    908.75  1476.99     0  02:24         1.2        2.83      -0.008
  YS02001762           JUNCTION      0.00   797.02     0  02:20           0        1.63       0.000
  YS02001765           JUNCTION      0.00   797.46     0  02:20           0        1.63       0.010
  YS02001767           JUNCTION      0.54   797.68     0  02:20      0.0154        1.63       0.013
  YS02001770           JUNCTION   1279.44  1279.44     0  02:25        1.83        1.87      -0.007
  YS02001774           JUNCTION      0.00   717.83     0  02:25           0       0.276       0.337
  YS02001779           JUNCTION      0.01   718.33     0  02:25    0.000144       0.234      -0.206
  YS02001783           JUNCTION      0.00  1167.93     0  02:23           0        4.13       0.005
  YS02001784           JUNCTION      1.06  1169.02     0  02:23      0.0305        4.16       0.013
  YS02001786           JUNCTION      0.06  1169.00     0  02:23     0.00162        4.16       0.016
  YS02001788           JUNCTION      0.07  1169.19     0  02:23     0.00204        4.16       0.008
  YS02001790           JUNCTION      0.15  1180.79     0  02:24     0.00446        4.17       0.025
  YS02001791           JUNCTION      0.00  1289.12     0  02:26           0        4.16      -0.020
  YS02001793           JUNCTION      0.00  1243.36     0  02:30           0        4.17       0.005
  YS02001882           JUNCTION      0.00    39.29     0  02:28           0      0.0131       5.169
  YS02001884           JUNCTION      0.00    59.43     0  02:28           0      0.0492       5.426
  YS02001887           JUNCTION    972.37   972.37     0  02:25        1.26        1.29       0.343
  YS02001890           JUNCTION      0.00   972.38     0  02:25           0        1.25       0.393
  YS02001895           JUNCTION      0.00   520.29     0  02:28           0         1.1       0.130
  YS02001898           JUNCTION      0.00   522.84     0  02:28           0         1.1       0.016
  YS02001901           JUNCTION      0.00   517.57     0  02:28           0         1.1       0.288
  YS02001904           JUNCTION      0.00   517.34     0  02:28           0        1.11       0.253
  YS02001907           JUNCTION      0.00  2352.98     0  02:25           0        3.86       0.434
  YS02001910           JUNCTION      0.00  1695.95     0  02:25           0        2.74       0.260
  YS02001915           JUNCTION   1131.01  1695.90     0  02:25        1.74        2.77       0.053
  YS02001918           JUNCTION      0.00   569.04     0  02:25           0        1.05       0.010
  YS02001920           JUNCTION      2.87   568.97     0  02:25      0.0827        1.03       0.086
  YS02001923           JUNCTION      0.04   565.18     0  02:25     0.00109       0.939       0.019
  YS02001926           JUNCTION      0.05   564.75     0  02:25      0.0015       0.925       0.018
  YS02001929           JUNCTION    549.34   549.34     0  02:26       0.918       0.918      -0.031
  YS02006553           JUNCTION      0.00   808.50     0  02:39           0        2.37       0.507
  YS02006556           JUNCTION      0.00   808.88     0  02:39           0        2.38       0.333
  YS02006558           JUNCTION   1314.96  1314.96     0  02:25        1.84        4.18       0.085
  YS02006561           JUNCTION      0.00  1167.94     0  02:23           0        4.13      -0.001
  YS02163301           JUNCTION      0.00   935.69     0  02:15           0        3.68       0.043
  YS02163601           JUNCTION      0.11  1376.29     0  02:15     0.00317        4.94       0.102
  YS02164001           JUNCTION      0.00  1376.31     0  02:15           0        4.94       0.046
  CC-1                 OUTFALL       0.00   683.00     0  00:00           0         4.9       0.000
  CC-2                 OUTFALL       0.00   683.00     0  00:00           0        4.73       0.000
  JK-1                 OUTFALL       0.00  1000.00     0  00:00           0       0.125       0.000
  JK-2                 OUTFALL       0.00  1000.00     0  00:00           0        3.83       0.000
  WSC                  OUTFALL       0.00   489.47     0  02:42           0        3.36       0.000
  CC-storage           STORAGE       0.00  3568.63     0  02:24           0        13.4      -0.238
  JK-storage           STORAGE       0.00  1257.52     0  02:33           0        4.32      -0.380
  
  
  **********************
  Node Surcharge Summary
  **********************
  
  Surcharging occurs when water rises above the top of the highest conduit.
  ---------------------------------------------------------------------
                                               Max. Height   Min. Depth
                                   Hours       Above Crown    Below Rim
  Node                 Type      Surcharged         Meters       Meters
  ---------------------------------------------------------------------
  WS02006109           JUNCTION        1.06          0.235        1.585
  WS02006110           JUNCTION        0.06          0.120        1.730
  WS02006112           JUNCTION        0.02          0.020        1.660
  WS02006228           JUNCTION        1.06          0.248        1.952
  WS02006229           JUNCTION        1.08          0.285        2.165
  WS02006230           JUNCTION        0.07          0.140        1.430
  WS02006231           JUNCTION        0.09          0.298        1.232
  WS02006232           JUNCTION        1.13          0.796        0.684
  WS02006234           JUNCTION        0.22          0.967        0.273
  WS02006235           JUNCTION        1.06          1.023        0.267
  WS02006238           JUNCTION        1.09          1.050        0.380
  WS02006239           JUNCTION        1.06          0.982        0.308
  WS02006240           JUNCTION        1.06          0.900        0.490
  WS02006242           JUNCTION        1.13          0.820        0.000
  WS02006243           JUNCTION        1.05          0.616        0.154
  WS02006245           JUNCTION        1.04          0.494        0.356
  WS02006247           JUNCTION        1.05          0.456        0.304
  WS02006248           JUNCTION        1.02          0.372        0.008
  WS02006249           JUNCTION        1.03          0.390        0.000
  WS02006251           JUNCTION        0.10          0.351        0.829
  WS02006252           JUNCTION        1.29          1.100        0.000
  WS02006256           JUNCTION        5.52          2.050        0.000
  YS02001580           JUNCTION        0.64          0.450        0.000
  YS02001583           JUNCTION        0.65          0.500        0.000
  YS02001586           JUNCTION        0.74          0.510        0.000
  YS02001590           JUNCTION        0.82          0.735        0.015
  YS02001593           JUNCTION        0.82          0.692        0.148
  YS02001596           JUNCTION        0.94          0.945        0.125
  YS02001600           JUNCTION        1.09          1.190        0.000
  YS02001601           JUNCTION        1.44          1.440        0.000
  YS02001602           JUNCTION        1.32          1.270        0.000
  YS02001605           JUNCTION        1.27          1.177        0.003
  YS02001607           JUNCTION        0.77          0.666        0.014
  YS02001610           JUNCTION        0.80          0.680        0.000
  YS02001613           JUNCTION        0.76          0.693        0.007
  YS02001616           JUNCTION        0.72          0.610        0.000
  YS02001619           JUNCTION        0.71          0.610        0.000
  YS02001622           JUNCTION        0.70          0.591        0.029
  YS02001625           JUNCTION        0.89          0.780        0.000
  YS02001629           JUNCTION        0.64          0.470        0.000
  YS02001633           JUNCTION        0.90          1.015        0.045
  YS02001641           JUNCTION        0.81          0.998        0.102
  YS02001644           JUNCTION        0.76          0.920        0.000
  YS02001647           JUNCTION        0.52          0.824        0.076
  YS02001649           JUNCTION        0.61          1.050        0.000
  YS02001652           JUNCTION        0.44          1.068        0.062
  YS02001655           JUNCTION        0.32          1.183        0.017
  YS02001658           JUNCTION        0.21          1.207        0.093
  YS02001661           JUNCTION        0.05          0.136        1.254
  YS02001748           JUNCTION        0.12          1.180        0.010
  YS02001751           JUNCTION        0.24          1.156        0.044
  YS02001754           JUNCTION        0.34          1.039        0.111
  YS02001757           JUNCTION        0.64          1.108        0.102
  YS02001759           JUNCTION        0.55          1.135        0.075
  YS02001762           JUNCTION        0.52          1.101        0.049
  YS02001765           JUNCTION        0.49          1.071        0.029
  YS02001767           JUNCTION        0.47          1.014        0.016
  YS02001770           JUNCTION        0.44          0.920        0.000
  YS02001774           JUNCTION        0.51          1.048        0.002
  YS02001779           JUNCTION        0.35          0.680        0.000
  YS02001783           JUNCTION        0.55          0.641        0.959
  YS02001784           JUNCTION        0.53          0.452        1.038
  YS02001786           JUNCTION        0.42          0.130        1.300
  YS02001882           JUNCTION        0.50          0.830        0.000
  YS02001884           JUNCTION        0.51          0.848        0.022
  YS02001887           JUNCTION        0.54          0.869        0.081
  YS02001890           JUNCTION        0.56          0.760        0.000
  YS02001895           JUNCTION        0.49          0.617        0.133
  YS02001898           JUNCTION        0.48          0.575        0.165
  YS02001901           JUNCTION        0.53          0.727        0.143
  YS02001904           JUNCTION        0.52          0.644        0.206
  YS02001907           JUNCTION        0.80          0.950        0.000
  YS02001910           JUNCTION        0.59          0.968        0.132
  YS02001915           JUNCTION        0.50          0.909        0.091
  YS02001918           JUNCTION        0.41          0.810        0.000
  YS02001920           JUNCTION        0.42          1.140        0.000
  YS02001923           JUNCTION        0.13          0.820        0.000
  YS02001926           JUNCTION        0.18          0.900        0.000
  YS02001929           JUNCTION        0.01          0.780        0.000
  YS02006553           JUNCTION        0.82          1.039        0.151
  YS02006556           JUNCTION        0.68          1.020        0.330
  YS02006558           JUNCTION        0.67          1.024        0.376
  YS02006561           JUNCTION        0.38          0.436        0.714
  YS02163301           JUNCTION        0.88          0.931        0.099
  YS02163601           JUNCTION        0.93          1.080        0.000
  YS02164001           JUNCTION        0.82          1.021        0.079
  
  
  *********************
  Node Flooding Summary
  *********************
  
  Flooding refers to all water that overflows a node, whether it ponds or not.
  --------------------------------------------------------------------------
                                                             Total   Maximum
                                 Maximum   Time of Max       Flood    Ponded
                        Hours       Rate    Occurrence      Volume     Depth
  Node                 Flooded       LPS   days hr:min    10^6 ltr    Meters
  --------------------------------------------------------------------------
  WS02006242              0.01      0.97      0  03:30       0.000     0.000
  WS02006249              0.09    101.76      0  02:30       0.022     0.000
  WS02006252              0.01    245.63      0  00:00       0.000     0.000
  WS02006256              0.29    293.19      0  00:00       0.089     0.000
  YS02001580              0.01     44.73      0  02:10       0.000     0.000
  YS02001583              0.01     83.05      0  02:10       0.000     0.000
  YS02001586              0.50    567.90      0  02:26       0.445     0.000
  YS02001600              0.01      0.69      0  02:10       0.000     0.000
  YS02001601              0.67   1476.23      0  02:25       1.507     0.000
  YS02001602              0.51     62.09      0  02:42       0.105     0.000
  YS02001610              0.45    888.75      0  02:26       0.767     0.000
  YS02001616              0.01     17.39      0  02:28       0.000     0.000
  YS02001619              0.01     26.27      0  02:28       0.000     0.000
  YS02001625              0.41   1453.36      0  02:26       1.157     0.000
  YS02001629              0.17    158.86      0  02:25       0.051     0.000
  YS02001644              0.19   1281.03      0  02:25       0.445     0.000
  YS02001649              0.01      9.54      0  02:20       0.000     0.000
  YS02001770              0.01     67.75      0  02:17       0.000     0.000
  YS02001779              0.17    718.10      0  02:25       0.218     0.000
  YS02001882              0.01     19.82      0  02:28       0.000     0.000
  YS02001890              0.20    455.94      0  02:25       0.141     0.000
  YS02001907              0.36   2352.97      0  02:25       1.499     0.000
  YS02001918              0.01    102.81      0  02:17       0.001     0.000
  YS02001920              0.01     39.60      0  02:17       0.000     0.000
  YS02001923              0.01    146.15      0  02:17       0.000     0.000
  YS02001926              0.01    297.76      0  02:16       0.000     0.000
  YS02001929              0.01    241.75      0  02:17       0.000     0.000
  YS02163601              0.01     12.45      0  02:28       0.000     0.000
  
  
  **********************
  Storage Volume Summary
  **********************
  
  ------------------------------------------------------------------------------------------------
                         Average    Avg   Evap  Exfil     Maximum    Max    Time of Max    Maximum
                          Volume   Pcnt   Pcnt   Pcnt      Volume   Pcnt     Occurrence    Outflow
  Storage Unit           1000 m³   Full   Loss   Loss     1000 m³   Full    days hr:min        LPS
  ------------------------------------------------------------------------------------------------
  CC-storage               1.918   29.9    0.0    0.0       4.032   62.9       0  02:49    1783.53
  JK-storage               0.086   29.5    0.0    0.0       0.201   69.0       0  02:21    2300.00
  
  
  ***********************
  Outfall Loading Summary
  ***********************
  
  -----------------------------------------------------------
                         Flow       Avg       Max       Total
                         Freq      Flow      Flow      Volume
  Outfall Node           Pcnt       LPS       LPS    10^6 ltr
  -----------------------------------------------------------
  CC-1                  55.95    683.00    683.00       4.896
  CC-2                  55.22    683.00    683.00       4.732
  JK-1                   0.55   1000.00   1000.00       0.125
  JK-2                  30.87   1000.00   1000.00       3.833
  WSC                   99.95    165.49    489.47       3.355
  -----------------------------------------------------------
  System                48.51   3531.49   3366.23      16.941
  
  
  ********************
  Link Flow Summary
  ********************
  
  -----------------------------------------------------------------------------
                                 Maximum  Time of Max   Maximum    Max/    Max/
                                  |Flow|   Occurrence   |Veloc|    Full    Full
  Link                 Type          LPS  days hr:min     m/sec    Flow   Depth
  -----------------------------------------------------------------------------
  1                    CONDUIT    489.47     0  02:42      2.73    0.17    0.28
  WS02003060WS02003069 CONDUIT    495.66     0  02:39      1.60    0.19    0.32
  WS02003066WSF200     CONDUIT    476.52     0  02:39      2.77    0.08    0.21
  WS02003067WS02003066 CONDUIT    476.62     0  02:39      1.13    0.15    0.40
  WS02003069WS02003072 CONDUIT    492.97     0  02:40      1.32    0.24    0.36
  WS02003072WS02003073 CONDUIT    490.52     0  02:41      1.38    1.06    0.35
  WS02004401WS02004402 CONDUIT    518.82     0  02:36      0.94    0.62    0.84
  WS02004402WS02004403 CONDUIT    515.77     0  02:36      0.94    0.74    0.86
  WS02004403WS02004404 CONDUIT    512.57     0  02:36      0.92    0.37    0.91
  WS02004404WS02004405 CONDUIT    512.12     0  02:36      1.03    5.02    0.94
  WS02004405WS02004406 CONDUIT    511.84     0  02:36      0.97    1.01    0.94
  WS02004406WS02004407 CONDUIT    510.03     0  02:36      1.01    0.23    0.61
  WS02004407WS02004409 CONDUIT    508.35     0  02:37      1.49    0.18    0.45
  WS02004409WS02004410 CONDUIT    497.48     0  02:37      0.97    0.64    0.63
  WS02004410WS02004411 CONDUIT    490.81     0  02:37      0.93    0.67    0.64
  WS02004411WS02004412 CONDUIT    484.88     0  02:38      0.89    0.69    0.65
  WS02004412WS02004413 CONDUIT    479.61     0  02:38      0.82    0.32    0.74
  WS02004413WS02003067 CONDUIT    475.58     0  02:39      1.04    0.20    0.56
  WS02006109WS02006110 CONDUIT    544.89     0  03:21      1.09    1.05    1.00
  WS02006110WS02006113 CONDUIT    558.16     0  03:21      1.35    0.51    0.78
  WS02006111WS02006112 CONDUIT    542.30     0  02:35      1.83    0.26    0.67
  WS02006112WS02006115 CONDUIT    539.62     0  02:35      0.79    0.32    0.86
  WS02006113WS02006111 CONDUIT    559.25     0  02:33      2.46    0.67    0.46
  WS02006115WS02006116 CONDUIT    529.59     0  02:35      0.97    0.68    0.73
  WS02006116WS02004401 CONDUIT    523.51     0  02:35      0.96    0.72    0.81
  WS02006228WS02006109 CONDUIT    542.32     0  03:21      1.08    2.37    1.00
  WS02006229WS02006228 CONDUIT    542.22     0  02:31      1.14    1.80    1.00
  WS02006230WS02006229 CONDUIT    542.58     0  03:21      1.41   12.07    1.00
  WS02006231WS02006230 CONDUIT    570.38     0  03:20      1.55    8.65    1.00
  WS02006232WS02006231 CONDUIT    570.49     0  03:20      1.48    1.20    1.00
  WS02006234WS02006232 CONDUIT    569.41     0  03:20      1.48    1.15    1.00
  WS02006235WS02006234 CONDUIT    565.27     0  03:20      1.47    5.96    1.00
  WS02006238WS02006235 CONDUIT    421.41     0  02:35      1.45    0.94    1.00
  WS02006239WS02006238 CONDUIT    421.23     0  02:35      1.10    1.35    1.00
  WS02006240WS02006239 CONDUIT    420.87     0  02:35      1.24    1.32    1.00
  WS02006242WS02006240 CONDUIT    418.74     0  02:35      1.13    1.66    1.00
  WS02006243WS02006242 CONDUIT    418.86     0  02:35      1.40    0.89    1.00
  WS02006245WS02006243 CONDUIT    418.04     0  02:35      1.45    1.24    1.00
  WS02006247WS02006245 CONDUIT    417.70     0  02:35      1.43    3.31    1.00
  WS02006248WS02006247 CONDUIT    417.04     0  02:35      1.44    0.91    1.00
  WS02006249WS02006248 CONDUIT    433.04     0  03:37      1.36    2.37    1.00
  WS02006251WS02006249 CONDUIT    459.02     0  00:00      1.99    1.32    1.00
  WS02006252WS02006251 CONDUIT    407.00     0  02:30     24.61    1.49    1.00
  WS02006256WS02006235 CONDUIT    288.91     0  00:00      4.23    3.06    1.00
  WSF200WS02003060     CONDUIT    478.67     0  02:39      2.00    0.11    0.26
  YS02001580YS02001583 CONDUIT     74.28     0  02:10      0.53    0.29    1.00
  YS02001583YS02001586 CONDUIT    121.02     0  02:10      0.52    0.18    1.00
  YS02001586YS02001590 CONDUIT    317.92     0  02:34      1.25    0.56    1.00
  YS02001590YS02001593 CONDUIT    318.00     0  02:32      1.12    2.00    1.00
  YS02001593YS02001596 CONDUIT    318.05     0  02:41      1.78    0.50    1.00
  YS02001596YS02001600 CONDUIT    317.96     0  02:30      1.28    0.62    1.00
  YS02001600YS02001601 CONDUIT    318.04     0  02:36      1.12    0.55    1.00
  YS02001601YS02001602 CONDUIT    494.46     0  02:10      1.75    1.79    1.00
  YS02001602YS02001605 CONDUIT    494.35     0  02:10      1.75   10.46    1.00
  YS02001605YS02001607 CONDUIT    494.07     0  02:10      1.75    2.71    1.00
  YS02001607YS02001610 CONDUIT    498.17     0  02:09      0.63    0.47    1.00
  YS02001610YS02001613 CONDUIT    552.75     0  02:26      0.70    0.64    1.00
  YS02001613YS02001616 CONDUIT    552.52     0  02:26      0.70    0.47    1.00
  YS02001616YS02001619 CONDUIT    552.29     0  02:26      0.70    0.96    1.00
  YS02001619YS02001622 CONDUIT   1033.23     0  02:25      1.32    1.52    1.00
  YS02001622YS02001625 CONDUIT   1033.44     0  02:25      1.32    0.55    1.00
  YS02001625YS02001629 CONDUIT    935.97     0  02:15      1.19    0.45    1.00
  YS02001629YS02163301 CONDUIT    935.69     0  02:15      1.19    1.15    1.00
  YS02001633YS02163601 CONDUIT   1376.18     0  02:15      1.75    1.44    1.00
  YS02001641YS02001644 CONDUIT   1375.87     0  02:15      1.75    4.45    1.00
  YS02001644YS02001647 CONDUIT   1772.21     0  02:15      2.26    1.04    1.00
  YS02001647YS02001649 CONDUIT   1794.79     0  02:16      2.34    0.95    1.00
  YS02001649YS02001757 CONDUIT   2043.16     0  02:16      2.60    1.24    1.00
  YS02001652YS02001649 CONDUIT   1054.99     0  02:25      1.34    0.52    1.00
  YS02001655YS02001652 CONDUIT   1054.92     0  02:25      1.34    0.51    1.00
  YS02001658YS02001655 CONDUIT   1054.82     0  02:25      1.85    0.45    1.00
  YS02001661YS02001658 CONDUIT   1054.82     0  02:25      2.29    0.41    1.00
  YS02001664YS02001661 CONDUIT   1053.59     0  02:25      2.27    0.33    0.83
  YS02001745YS02001748 CONDUIT    665.56     0  02:25      2.14    0.26    0.92
  YS02001748YS02001751 CONDUIT    664.43     0  02:25      1.66    0.34    1.00
  YS02001751YS02001754 CONDUIT    664.47     0  02:25      1.39    0.32    1.00
  YS02001754YS02001757 CONDUIT    664.90     0  02:25      0.85    0.27    1.00
  YS02001757CaochengTiaoxuchi CONDUIT   3568.63     0  02:24      4.71    1.54    1.00
  YS02001759YS02001757 CONDUIT   1476.90     0  02:24      1.88    1.05    1.00
  YS02001762YS02001759 CONDUIT    796.74     0  02:20      1.01    0.92    1.00
  YS02001765YS02001762 CONDUIT    797.02     0  02:20      1.01    0.75    1.00
  YS02001767YS02001765 CONDUIT    797.46     0  02:20      1.02    1.00    1.00
  YS02001770YS02001767 CONDUIT    797.14     0  02:20      1.01    3.16    1.00
  YS02001774YS02001770 CONDUIT    717.83     0  02:25      0.91    0.46    1.00
  YS02001779YS02001774 CONDUIT    718.33     0  02:25      0.91    0.36    1.00
  YS02001783YS02001784 CONDUIT   1167.96     0  02:23      2.32    1.61    1.00
  YS02001784YS02001785 CONDUIT   1168.95     0  02:23      2.33    2.72    1.00
  YS02001786YS02001788 CONDUIT   1169.12     0  02:23      2.49    2.25    0.89
  YS02001788YS02001790 CONDUIT   1180.64     0  02:24      2.72    0.87    0.84
  YS02001790YS02001791 CONDUIT   1289.12     0  02:26      3.43    1.40    0.70
  YS02001791YS02001793 CONDUIT   1243.36     0  02:30      6.69    0.53    0.43
  YS02001793JiankangQianchi CONDUIT   1257.52     0  02:33      2.51    0.10    0.64
  YS02001882YS02001884 CONDUIT     39.29     0  02:28      0.12    0.05    1.00
  YS02001884YS02001887 CONDUIT     59.43     0  02:28      0.09    0.08    1.00
  YS02001887YS02001890 CONDUIT    972.38     0  02:25      1.24    1.66    1.00
  YS02001890YS02001895 CONDUIT    520.29     0  02:28      0.66    0.24    1.00
  YS02001895YS02001898 CONDUIT    522.84     0  02:28      0.67    0.91    1.00
  YS02001898YS02001901 CONDUIT    517.57     0  02:28      0.66    0.33    1.00
  YS02001901YS02001904 CONDUIT    517.34     0  02:28      0.66    0.80    1.00
  YS02001904YS02001907 CONDUIT    519.38     0  02:28      0.66    0.18    1.00
  YS02001907YS02006553 CONDUIT    808.50     0  02:39      0.90    0.95    1.00
  YS02001910YS02001907 CONDUIT   1695.97     0  02:25      2.16    0.96    1.00
  YS02001915YS02001910 CONDUIT   1695.95     0  02:25      2.16    0.84    1.00
  YS02001918YS02001915 CONDUIT    569.16     0  02:25      0.72    0.31    1.00
  YS02001920YS02001918 CONDUIT    569.04     0  02:25      0.72    0.55    1.00
  YS02001923YS02001920 CONDUIT    566.10     0  02:25      0.72    0.25    1.00
  YS02001926YS02001923 CONDUIT    565.15     0  02:25      0.94    0.81    1.00
  YS02001929YS02001926 CONDUIT    564.70     0  02:25      1.08    0.27    1.00
  YS02006553YS02006556 CONDUIT    808.88     0  02:39      1.03    0.69    1.00
  YS02006556YS02006558 CONDUIT    811.44     0  02:39      1.03    0.64    1.00
  YS02006558YS02006561 CONDUIT   1167.94     0  02:23      4.13    2.58    1.00
  YS02006561YS02001783 CONDUIT   1167.93     0  02:23      2.32    0.60    1.00
  YS02163301YS02001633 CONDUIT    935.73     0  02:15      1.19    0.88    1.00
  YS02163601YS02164001 CONDUIT   1376.31     0  02:15      1.75    1.22    1.00
  YS02164001YS02001641 CONDUIT   1375.78     0  02:15      1.75    1.88    1.00
  CC-R1                PUMP       683.00     0  00:00              1.00
  CC-R2                PUMP       683.00     0  00:00              1.00
  CC-S1                PUMP       200.00     0  00:00              1.00
  CC-S2                PUMP       200.00     0  00:00              1.00
  JK-R1                PUMP      1000.00     0  00:00              1.00
  JK-R2                PUMP      1000.00     0  00:00              1.00
  JK-S                 PUMP       300.00     0  00:00              1.00
  
  
  ***************************
  Flow Classification Summary
  ***************************
  
  -------------------------------------------------------------------------------------
                      Adjusted    ---------- Fraction of Time in Flow Class ---------- 
                       /Actual         Up    Down  Sub   Sup   Up    Down  Norm  Inlet 
  Conduit               Length    Dry  Dry   Dry   Crit  Crit  Crit  Crit  Ltd   Ctrl  
  -------------------------------------------------------------------------------------
  1                       1.00   0.00  0.00  0.00  0.00  1.00  0.00  0.00  0.53  0.00
  WS02003060WS02003069    1.00   0.00  0.00  0.00  0.98  0.02  0.00  0.00  0.77  0.00
  WS02003066WSF200        1.00   0.08  0.00  0.00  0.00  0.92  0.00  0.00  0.90  0.00
  WS02003067WS02003066    1.00   0.07  0.01  0.00  0.93  0.00  0.00  0.00  0.00  0.00
  WS02003069WS02003072    1.00   0.00  0.00  0.00  0.99  0.01  0.00  0.00  0.84  0.00
  WS02003072WS02003073    1.00   0.00  0.00  0.00  0.00  0.00  0.00  1.00  0.00  0.00
  WS02004401WS02004402    1.00   0.02  0.00  0.00  0.98  0.00  0.00  0.00  0.00  0.00
  WS02004402WS02004403    1.00   0.02  0.00  0.00  0.97  0.00  0.00  0.00  0.00  0.00
  WS02004403WS02004404    1.00   0.00  0.03  0.00  0.97  0.00  0.00  0.00  0.00  0.00
  WS02004404WS02004405    1.00   0.00  0.00  0.00  1.00  0.00  0.00  0.00  0.00  0.00
  WS02004405WS02004406    1.00   0.00  0.00  0.00  1.00  0.00  0.00  0.00  0.00  0.00
  WS02004406WS02004407    1.00   0.00  0.04  0.00  0.95  0.00  0.00  0.00  0.00  0.00
  WS02004407WS02004409    1.00   0.05  0.00  0.00  0.95  0.01  0.00  0.00  0.95  0.00
  WS02004409WS02004410    1.00   0.05  0.00  0.00  0.95  0.00  0.00  0.00  0.00  0.00
  WS02004410WS02004411    1.00   0.05  0.00  0.00  0.95  0.00  0.00  0.00  0.00  0.00
  WS02004411WS02004412    1.00   0.05  0.00  0.00  0.95  0.00  0.00  0.00  0.00  0.00
  WS02004412WS02004413    1.00   0.05  0.00  0.00  0.95  0.00  0.00  0.00  0.00  0.00
  WS02004413WS02003067    1.00   0.05  0.01  0.00  0.00  0.00  0.93  0.00  0.00  0.00
  WS02006109WS02006110    1.00   0.00  0.01  0.00  0.98  0.00  0.01  0.00  0.00  0.00
  WS02006110WS02006113    1.00   0.01  0.01  0.00  0.98  0.00  0.00  0.00  0.00  0.00
  WS02006111WS02006112    1.00   0.02  0.00  0.00  0.98  0.00  0.00  0.00  0.98  0.00
  WS02006112WS02006115    1.00   0.02  0.00  0.00  0.97  0.00  0.00  0.00  0.00  0.00
  WS02006113WS02006111    1.00   0.02  0.00  0.00  0.00  0.98  0.00  0.00  0.09  0.00
  WS02006115WS02006116    1.00   0.02  0.00  0.00  0.97  0.00  0.00  0.01  0.00  0.00
  WS02006116WS02004401    1.00   0.02  0.00  0.00  0.98  0.00  0.00  0.00  0.00  0.00
  WS02006228WS02006109    1.00   0.00  0.00  0.00  1.00  0.00  0.00  0.00  0.00  0.00
  WS02006229WS02006228    1.00   0.00  0.00  0.00  0.99  0.00  0.00  0.01  0.00  0.00
  WS02006230WS02006229    1.00   0.00  0.00  0.00  0.99  0.00  0.00  0.01  0.00  0.00
  WS02006231WS02006230    1.00   0.00  0.00  0.00  0.16  0.00  0.84  0.00  0.00  0.00
  WS02006232WS02006231    1.00   0.00  0.00  0.00  0.99  0.00  0.00  0.00  0.00  0.00
  WS02006234WS02006232    1.00   0.00  0.00  0.00  1.00  0.00  0.00  0.00  0.23  0.00
  WS02006235WS02006234    1.00   0.00  0.00  0.00  0.57  0.00  0.43  0.00  0.00  0.00
  WS02006238WS02006235    1.00   0.00  0.00  0.00  1.00  0.00  0.00  0.00  0.00  0.00
  WS02006239WS02006238    1.00   0.00  0.00  0.00  1.00  0.00  0.00  0.00  0.35  0.00
  WS02006240WS02006239    1.00   0.00  0.00  0.00  0.40  0.00  0.00  0.60  0.02  0.00
  WS02006242WS02006240    1.00   0.00  0.00  0.00  0.99  0.00  0.01  0.00  0.00  0.00
  WS02006243WS02006242    1.00   0.00  0.00  0.00  0.99  0.00  0.00  0.00  0.68  0.00
  WS02006245WS02006243    1.00   0.00  0.00  0.00  0.70  0.00  0.00  0.30  0.01  0.00
  WS02006247WS02006245    1.00   0.00  0.00  0.00  0.98  0.00  0.00  0.02  0.00  0.00
  WS02006248WS02006247    1.00   0.00  0.00  0.00  0.99  0.00  0.00  0.01  0.57  0.00
  WS02006249WS02006248    1.00   0.00  0.00  0.00  0.35  0.00  0.65  0.00  0.00  0.00
  WS02006251WS02006249    1.00   0.00  0.00  0.00  1.00  0.00  0.00  0.00  0.63  0.00
  WS02006252WS02006251    1.00   0.00  0.65  0.00  0.01  0.00  0.34  0.00  0.00  0.00
  WS02006256WS02006235    1.00   0.00  0.00  0.00  1.00  0.00  0.00  0.00  0.00  0.00
  WSF200WS02003060        1.00   0.00  0.08  0.00  0.57  0.35  0.00  0.00  0.71  0.00
  YS02001580YS02001583    1.00   0.27  0.54  0.00  0.19  0.00  0.00  0.00  0.63  0.00
  YS02001583YS02001586    1.00   0.41  0.35  0.00  0.25  0.00  0.00  0.00  0.63  0.00
  YS02001586YS02001590    1.00   0.13  0.00  0.00  0.45  0.04  0.00  0.38  0.39  0.00
  YS02001590YS02001593    1.00   0.13  0.01  0.00  0.12  0.00  0.75  0.00  0.00  0.00
  YS02001593YS02001596    1.00   0.13  0.00  0.00  0.14  0.01  0.00  0.72  0.02  0.00
  YS02001596YS02001600    1.00   0.14  0.00  0.00  0.20  0.02  0.00  0.65  0.05  0.00
  YS02001600YS02001601    1.00   0.13  0.01  0.00  0.86  0.00  0.00  0.00  0.59  0.00
  YS02001601YS02001602    1.00   0.13  0.01  0.00  0.87  0.00  0.00  0.00  0.00  0.00
  YS02001602YS02001605    1.00   0.13  0.00  0.00  0.86  0.00  0.00  0.00  0.00  0.00
  YS02001605YS02001607    1.00   0.14  0.00  0.00  0.86  0.00  0.00  0.00  0.00  0.00
  YS02001607YS02001610    1.00   0.13  0.01  0.00  0.86  0.00  0.00  0.00  0.01  0.00
  YS02001610YS02001613    1.00   0.13  0.00  0.00  0.87  0.00  0.00  0.00  0.00  0.00
  YS02001613YS02001616    1.00   0.13  0.00  0.00  0.87  0.00  0.00  0.00  0.00  0.00
  YS02001616YS02001619    1.00   0.13  0.00  0.00  0.87  0.00  0.00  0.00  0.00  0.00
  YS02001619YS02001622    1.00   0.13  0.00  0.00  0.87  0.00  0.00  0.00  0.27  0.00
  YS02001622YS02001625    1.00   0.13  0.00  0.00  0.87  0.00  0.00  0.00  0.04  0.00
  YS02001625YS02001629    1.00   0.13  0.05  0.00  0.16  0.00  0.66  0.00  0.00  0.00
  YS02001629YS02163301    1.00   0.15  0.01  0.00  0.84  0.00  0.00  0.00  0.00  0.00
  YS02001633YS02163601    1.00   0.00  0.01  0.00  0.99  0.00  0.00  0.00  0.15  0.00
  YS02001641YS02001644    1.00   0.00  0.01  0.00  0.99  0.00  0.00  0.00  0.00  0.00
  YS02001644YS02001647    1.00   0.00  0.17  0.00  0.83  0.00  0.00  0.00  0.00  0.00
  YS02001647YS02001649    1.00   0.00  0.17  0.00  0.49  0.33  0.00  0.00  0.55  0.00
  YS02001649YS02001757    1.00   0.00  0.00  0.00  0.64  0.36  0.00  0.00  0.45  0.00
  YS02001652YS02001649    1.00   0.00  0.00  0.00  0.96  0.03  0.00  0.00  0.74  0.00
  YS02001655YS02001652    1.00   0.00  0.00  0.00  0.18  0.01  0.00  0.81  0.06  0.00
  YS02001658YS02001655    1.00   0.00  0.14  0.00  0.64  0.22  0.00  0.00  0.71  0.00
  YS02001661YS02001658    1.00   0.14  0.00  0.00  0.47  0.39  0.00  0.00  0.72  0.00
  YS02001664YS02001661    1.00   0.13  0.00  0.00  0.75  0.12  0.00  0.00  0.85  0.00
  YS02001745YS02001748    1.00   0.00  0.00  0.00  0.07  0.01  0.00  0.92  0.04  0.00
  YS02001748YS02001751    1.00   0.00  0.00  0.00  0.80  0.20  0.00  0.00  0.76  0.00
  YS02001751YS02001754    1.00   0.00  0.00  0.00  0.13  0.01  0.00  0.86  0.03  0.00
  YS02001754YS02001757    1.00   0.00  0.00  0.00  1.00  0.00  0.00  0.00  0.84  0.00
  YS02001757CaochengTiaoxuchi    1.00   0.00  0.00  0.00  0.92  0.08  0.00  0.00  0.79  0.00
  YS02001759YS02001757    1.00   0.00  0.00  0.00  1.00  0.00  0.00  0.00  0.59  0.00
  YS02001762YS02001759    1.00   0.00  0.00  0.00  1.00  0.00  0.00  0.00  0.05  0.00
  YS02001765YS02001762    1.00   0.00  0.00  0.00  1.00  0.00  0.00  0.00  0.72  0.00
  YS02001767YS02001765    1.00   0.00  0.00  0.00  1.00  0.00  0.00  0.00  0.01  0.00
  YS02001770YS02001767    1.00   0.00  0.00  0.00  1.00  0.00  0.00  0.00  0.00  0.00
  YS02001774YS02001770    1.00   0.00  0.13  0.00  0.71  0.00  0.16  0.00  0.03  0.00
  YS02001779YS02001774    1.00   0.00  0.00  0.00  1.00  0.00  0.00  0.00  0.78  0.00
  YS02001783YS02001784    1.00   0.00  0.18  0.00  0.82  0.00  0.00  0.00  0.55  0.00
  YS02001784YS02001785    1.00   0.00  0.00  0.00  1.00  0.00  0.00  0.00  0.17  0.00
  YS02001786YS02001788    1.00   0.00  0.00  0.00  0.79  0.21  0.00  0.00  0.00  0.00
  YS02001788YS02001790    1.00   0.00  0.00  0.00  0.21  0.79  0.00  0.00  0.80  0.00
  YS02001790YS02001791    1.00   0.00  0.00  0.00  0.01  0.99  0.00  0.00  0.16  0.00
  YS02001791YS02001793    1.00   0.00  0.00  0.00  0.00  1.00  0.00  0.00  0.01  0.00
  YS02001793JiankangQianchi    1.00   0.00  0.00  0.00  0.97  0.02  0.00  0.00  0.95  0.00
  YS02001882YS02001884    1.00   0.15  0.01  0.00  0.84  0.00  0.00  0.00  0.00  0.00
  YS02001884YS02001887    1.00   0.06  0.05  0.00  0.89  0.00  0.00  0.00  0.00  0.00
  YS02001887YS02001890    1.00   0.00  0.00  0.00  0.97  0.00  0.03  0.00  0.00  0.00
  YS02001890YS02001895    1.00   0.00  0.16  0.00  0.84  0.00  0.00  0.00  0.00  0.00
  YS02001895YS02001898    1.00   0.16  0.00  0.00  0.82  0.00  0.02  0.00  0.00  0.00
  YS02001898YS02001901    1.00   0.17  0.00  0.00  0.83  0.00  0.00  0.00  0.01  0.00
  YS02001901YS02001904    1.00   0.17  0.00  0.00  0.83  0.00  0.00  0.00  0.00  0.00
  YS02001904YS02001907    1.00   0.00  0.16  0.00  0.83  0.00  0.00  0.00  0.00  0.00
  YS02001907YS02006553    1.00   0.00  0.02  0.00  0.98  0.00  0.00  0.00  0.00  0.00
  YS02001910YS02001907    1.00   0.00  0.00  0.00  0.97  0.00  0.00  0.03  0.12  0.00
  YS02001915YS02001910    1.00   0.00  0.00  0.00  0.97  0.03  0.00  0.00  0.16  0.00
  YS02001918YS02001915    1.00   0.00  0.01  0.00  0.98  0.02  0.00  0.00  0.74  0.00
  YS02001920YS02001918    1.00   0.00  0.01  0.00  0.99  0.00  0.00  0.00  0.00  0.00
  YS02001923YS02001920    1.00   0.00  0.00  0.00  1.00  0.00  0.00  0.00  0.92  0.00
  YS02001926YS02001923    1.00   0.00  0.07  0.00  0.06  0.00  0.86  0.00  0.00  0.00
  YS02001929YS02001926    1.00   0.00  0.13  0.00  0.87  0.00  0.00  0.00  0.82  0.00
  YS02006553YS02006556    1.00   0.01  0.00  0.00  0.99  0.00  0.00  0.00  0.03  0.00
  YS02006556YS02006558    1.00   0.00  0.00  0.00  1.00  0.00  0.00  0.00  0.00  0.00
  YS02006558YS02006561    1.00   0.18  0.00  0.00  0.06  0.76  0.00  0.00  0.18  0.00
  YS02006561YS02001783    1.00   0.18  0.00  0.00  0.09  0.73  0.00  0.00  0.68  0.00
  YS02163301YS02001633    1.00   0.00  0.15  0.00  0.85  0.00  0.00  0.00  0.00  0.00
  YS02163601YS02164001    1.00   0.00  0.08  0.00  0.92  0.00  0.00  0.00  0.00  0.00
  YS02164001YS02001641    1.00   0.01  0.07  0.00  0.92  0.00  0.00  0.00  0.05  0.00
  
  
  *************************
  Conduit Surcharge Summary
  *************************
  
  ----------------------------------------------------------------------------
                                                           Hours        Hours 
                         --------- Hours Full --------   Above Full   Capacity
  Conduit                Both Ends  Upstream  Dnstream   Normal Flow   Limited
  ----------------------------------------------------------------------------
  WS02003072WS02003073        0.01      0.01      0.01      0.08         0.01
  WS02004404WS02004405        0.01      0.01      0.01      1.97         0.01
  WS02004405WS02004406        0.01      0.01      0.01      0.01         0.01
  WS02006109WS02006110        0.06      0.06      1.11      0.08         0.01
  WS02006110WS02006113        0.01      0.01      1.07      0.01         0.01
  WS02006111WS02006112        0.01      0.01      1.34      0.01         0.01
  WS02006112WS02006115        0.01      0.01      0.02      0.01         0.01
  WS02006228WS02006109        1.06      1.11      1.06      1.46         1.06
  WS02006229WS02006228        1.06      1.08      1.06      1.33         1.06
  WS02006230WS02006229        1.23      1.31      1.23      2.64         1.23
  WS02006231WS02006230        0.07      0.07      0.11      2.37         0.01
  WS02006232WS02006231        0.09      0.09      1.13      0.13         0.01
  WS02006234WS02006232        1.06      1.06      1.13      0.11         0.12
  WS02006235WS02006234        0.22      0.22      1.06      2.16         0.01
  WS02006238WS02006235        1.07      1.07      1.13      0.01         0.01
  WS02006239WS02006238        1.08      1.12      1.09      1.15         1.00
  WS02006240WS02006239        1.05      1.07      1.06      1.13         0.97
  WS02006242WS02006240        1.06      1.06      1.16      1.28         0.01
  WS02006243WS02006242        1.06      1.06      1.13      0.01         0.01
  WS02006245WS02006243        1.03      1.05      1.05      1.06         0.95
  WS02006247WS02006245        1.04      1.07      1.04      2.01         1.03
  WS02006248WS02006247        1.03      1.03      1.05      0.01         0.01
  WS02006249WS02006248        1.02      1.02      1.03      1.92         0.01
  WS02006251WS02006249        1.03      1.04      1.03      1.20         1.01
  WS02006252WS02006251        1.22      1.22      1.28      1.23         0.01
  WS02006256WS02006235        2.23      2.25      5.50      0.30         0.01
  YS02001580YS02001583        0.64      0.64      0.67      0.01         0.01
  YS02001583YS02001586        0.65      0.65      0.74      0.01         0.01
  YS02001586YS02001590        0.75      0.75      0.82      0.01         0.01
  YS02001590YS02001593        0.82      0.82      0.84      0.85         0.01
  YS02001593YS02001596        0.83      0.83      0.94      0.01         0.01
  YS02001596YS02001600        0.99      0.99      1.09      0.01         0.01
  YS02001600YS02001601        1.15      1.15      1.44      0.01         0.01
  YS02001601YS02001602        1.32      1.32      1.49      1.11         0.01
  YS02001602YS02001605        1.27      1.27      1.32      2.39         0.01
  YS02001605YS02001607        1.22      1.27      1.22      1.40         1.22
  YS02001607YS02001610        0.77      0.77      0.80      0.01         0.01
  YS02001610YS02001613        0.76      0.76      0.80      0.01         0.01
  YS02001613YS02001616        0.72      0.72      0.76      0.01         0.01
  YS02001616YS02001619        0.71      0.71      0.72      0.01         0.04
  YS02001619YS02001622        0.70      0.71      0.70      0.86         0.69
  YS02001622YS02001625        0.70      0.70      0.89      0.01         0.01
  YS02001625YS02001629        0.64      0.64      0.89      0.01         0.01
  YS02001629YS02163301        0.87      0.87      0.88      0.32         0.32
  YS02001633YS02163601        0.90      0.90      0.93      0.45         0.45
  YS02001641YS02001644        0.76      0.81      0.76      1.53         0.75
  YS02001644YS02001647        0.52      0.52      0.76      0.05         0.01
  YS02001647YS02001649        0.52      0.52      0.61      0.01         0.01
  YS02001649YS02001757        0.60      0.61      0.64      0.32         0.24
  YS02001652YS02001649        0.46      0.46      0.61      0.01         0.01
  YS02001655YS02001652        0.32      0.32      0.44      0.01         0.01
  YS02001658YS02001655        0.21      0.21      0.32      0.01         0.01
  YS02001661YS02001658        0.05      0.05      0.21      0.01         0.01
  YS02001664YS02001661        0.01      0.01      0.09      0.01         0.01
  YS02001745YS02001748        0.01      0.01      0.12      0.01         0.01
  YS02001748YS02001751        0.18      0.18      0.24      0.01         0.01
  YS02001751YS02001754        0.24      0.24      0.34      0.01         0.01
  YS02001754YS02001757        0.37      0.37      0.64      0.01         0.01
  YS02001757CaochengTiaoxuchi        0.47      0.64      1.02      0.45         0.22
  YS02001759YS02001757        0.55      0.55      0.64      0.08         0.09
  YS02001762YS02001759        0.52      0.52      0.55      0.01         0.02
  YS02001765YS02001762        0.49      0.49      0.52      0.01         0.01
  YS02001767YS02001765        0.47      0.47      0.49      0.01         0.04
  YS02001770YS02001767        0.47      0.47      0.47      0.56         0.39
  YS02001774YS02001770        0.44      0.44      0.51      0.01         0.01
  YS02001779YS02001774        0.35      0.35      0.51      0.01         0.01
  YS02001783YS02001784        0.53      0.55      0.53      0.72         0.53
  YS02001784YS02001785        0.42      0.53      0.42      0.97         0.42
  YS02001786YS02001788        0.01      0.42      0.01      0.85         0.01
  YS02001790YS02001791        0.01      0.01      0.01      0.52         0.01
  YS02001793JiankangQianchi        0.01      0.01      7.03      0.01         0.01
  YS02001882YS02001884        0.50      0.50      0.51      0.01         0.01
  YS02001884YS02001887        0.53      0.53      0.54      0.01         0.01
  YS02001887YS02001890        0.56      0.56      0.57      0.14         0.01
  YS02001890YS02001895        0.49      0.49      0.59      0.01         0.01
  YS02001895YS02001898        0.48      0.48      0.49      0.01         0.01
  YS02001898YS02001901        0.49      0.49      0.53      0.01         0.01
  YS02001901YS02001904        0.52      0.52      0.53      0.01         0.01
  YS02001904YS02001907        0.52      0.52      0.83      0.01         0.01
  YS02001907YS02006553        0.99      0.99      1.06      0.01         0.01
  YS02001910YS02001907        0.59      0.59      0.80      0.01         0.01
  YS02001915YS02001910        0.50      0.50      0.59      0.01         0.01
  YS02001918YS02001915        0.41      0.41      0.50      0.01         0.01
  YS02001920YS02001918        0.41      0.41      0.42      0.01         0.01
  YS02001923YS02001920        0.37      0.37      0.42      0.01         0.01
  YS02001926YS02001923        0.13      0.13      0.18      0.01         0.01
  YS02001929YS02001926        0.01      0.01      0.18      0.01         0.01
  YS02006553YS02006556        0.68      0.68      0.82      0.01         0.01
  YS02006556YS02006558        0.76      0.76      0.84      0.01         0.01
  YS02006558YS02006561        0.44      0.67      0.44      0.93         0.44
  YS02006561YS02001783        0.38      0.38      0.55      0.01         0.01
  YS02163301YS02001633        0.88      0.88      0.92      0.01         0.01
  YS02163601YS02164001        0.82      0.82      0.93      0.17         0.01
  YS02164001YS02001641        0.81      0.82      0.81      0.75         0.59
  
  
  ***************
  Pumping Summary
  ***************
  
  ---------------------------------------------------------------------------------------------------------
                                                  Min       Avg       Max     Total     Power    % Time Off
                        Percent   Number of      Flow      Flow      Flow    Volume     Usage    Pump Curve
  Pump                 Utilized   Start-Ups       LPS       LPS       LPS  10^6 ltr     Kw-hr    Low   High
  ---------------------------------------------------------------------------------------------------------
  CC-R1                   25.19          43      0.00    683.00    683.00     4.955     87.01    0.0   53.3
  CC-R2                   24.36          45      0.00    683.00    683.00     4.792     83.62    0.0   60.3
  CC-S1                   26.52          42      0.00    200.00    200.00     1.527      9.50    0.0    0.0
  CC-S2                   16.36           4      0.00    200.00    200.00     0.942      5.55    0.0    0.0
  JK-R1                    0.43           4      0.00   1000.00   1000.00     0.125      0.84    0.0    0.0
  JK-R2                   13.49          45      0.00   1000.00   1000.00     3.884     37.33    0.0    0.0
  JK-S                     3.67          10      0.00    300.00    300.00     0.317      5.05    0.0    0.0
  

  Analysis begun on:  Mon Feb 24 09:46:20 2025
  Analysis ended on:  Mon Feb 24 09:46:22 2025
  Total elapsed time: 00:00:02