
  EPA STORM WATER MANAGEMENT MODEL - VERSION 5.2 (Build 5.2.4)
  PYSWMM TOOLKIT API - VERSION v1.0 (2023-11-27)
  ------------------------------------------------------------

  WARNING 04: minimum elevation drop used for Conduit WS02004404WS02004405
  WARNING 03: negative offset ignored for Link YS02001904YS02001907
  
  ****************
  Analysis Options
  ****************
  Flow Units ............... LPS
  Process Models:
    Rainfall/Runoff ........ YES
    RDII ................... NO
    Snowmelt ............... NO
    Groundwater ............ NO
    Flow Routing ........... YES
    Ponding Allowed ........ NO
    Water Quality .......... NO
  Infiltration Method ...... HORTON
  Flow Routing Method ...... DYNWAVE
  Surcharge Method ......... EXTRAN
  Starting Date ............ 08/28/2015 08:00:00
  Ending Date .............. 08/28/2015 16:00:00
  Antecedent Dry Days ...... 8.0
  Report Time Step ......... 00:01:00
  Wet Time Step ............ 00:01:00
  Dry Time Step ............ 00:01:00
  Routing Time Step ........ 30.00 sec
  Variable Time Step ....... YES
  Maximum Trials ........... 8
  Number of Threads ........ 4
  Head Tolerance ........... 0.001500 m
  
  
  **************************        Volume         Depth
  Runoff Quantity Continuity     hectare-m            mm
  **************************     ---------       -------
  Total Precipitation ......         3.308        99.722
  Evaporation Loss .........         0.000         0.000
  Infiltration Loss ........         0.107         3.222
  Surface Runoff ...........         3.168        95.522
  Final Storage ............         0.033         0.998
  Continuity Error (%) .....        -0.020
  
  
  **************************        Volume        Volume
  Flow Routing Continuity        hectare-m      10^6 ltr
  **************************     ---------     ---------
  Dry Weather Inflow .......         0.025         0.251
  Wet Weather Inflow .......         3.169        31.690
  Groundwater Inflow .......         0.000         0.000
  RDII Inflow ..............         0.000         0.000
  External Inflow ..........         0.083         0.834
  External Outflow .........         2.071        20.708
  Flooding Loss ............         1.275        12.753
  Evaporation Loss .........         0.000         0.000
  Exfiltration Loss ........         0.000         0.000
  Initial Stored Volume ....         0.243         2.431
  Final Stored Volume ......         0.181         1.811
  Continuity Error (%) .....        -0.190
  
  
  *************************
  Highest Continuity Errors
  *************************
  Node YS02001884 (4.90%)
  Node YS02001583 (-2.20%)
  Node WS02006256 (-1.86%)
  
  
  ***************************
  Time-Step Critical Elements
  ***************************
  Link WS02006252WS02006251 (39.34%)
  Link WS02004404WS02004405 (21.58%)
  Link YS02001791YS02001793 (9.12%)
  Link WS02006238WS02006235 (8.37%)
  Link WS02006235WS02006234 (6.79%)
  
  
  ********************************
  Highest Flow Instability Indexes
  ********************************
  Link WS02006113WS02006111 (38)
  Link YS02001607YS02001610 (18)
  Link YS02001602YS02001605 (18)
  Link WS02006111WS02006112 (18)
  Link YS02001605YS02001607 (17)
  
  
  *********************************
  Most Frequent Nonconverging Nodes
  *********************************
  Node CC-1 (15.14%)
  Node CC-2 (15.14%)
  Node JK-1 (15.14%)
  Node JK-2 (15.14%)
  Node WSC (15.14%)
  
  
  *************************
  Routing Time Step Summary
  *************************
  Minimum Time Step           :     0.01 sec
  Average Time Step           :     2.48 sec
  Maximum Time Step           :     7.04 sec
  % of Time in Steady State   :     0.00
  Average Iterations per Step :     3.41
  % of Steps Not Converging   :    15.14
  Time Step Frequencies       :
     30.000 - 13.228 sec      :     0.00 %
     13.228 -  5.833 sec      :    18.56 %
      5.833 -  2.572 sec      :    19.37 %
      2.572 -  1.134 sec      :    17.54 %
      1.134 -  0.500 sec      :    44.53 %
  
  
  ***************************
  Subcatchment Runoff Summary
  ***************************
  
  ------------------------------------------------------------------------------------------------------------------------------
                            Total      Total      Total      Total     Imperv       Perv      Total       Total     Peak  Runoff
                           Precip      Runon       Evap      Infil     Runoff     Runoff     Runoff      Runoff   Runoff   Coeff
  Subcatchment                 mm         mm         mm         mm         mm         mm         mm    10^6 ltr      LPS
  ------------------------------------------------------------------------------------------------------------------------------
  sub60                     99.72       0.00       0.00       1.90      86.56      10.07      96.63        1.27   840.75   0.969
  sub61                     99.72       0.00       0.00       2.76      81.65      14.19      95.84        1.76  1170.65   0.961
  sub62                     99.72       0.00       0.00       1.26      90.46       6.71      97.18        2.66  1670.89   0.974
  sub63                     99.72       0.00       0.00       5.14      69.84      23.78      93.62        2.13  1363.16   0.939
  sub64                     99.72       0.00       0.00       2.59      83.56      12.37      95.93        2.30  1393.10   0.962
  sub65                     99.72       0.00       0.00       2.24      85.51      10.72      96.23        2.65  1563.79   0.965
  sub66                     99.72       0.00       0.00       6.44      69.73      22.48      92.20        4.30  2197.80   0.925
  sub67                     99.72       0.00       0.00       1.21      90.51       6.77      97.28        1.81  1235.63   0.976
  sub68                     99.72       0.00       0.00       2.29      84.58      11.67      96.25        2.65  1707.81   0.965
  sub69                     99.72       0.00       0.00       2.09      84.65      12.87      97.52        3.61  2080.14   0.978
  sub70                     99.72       0.00       0.00       7.07      65.65      26.84      92.49        2.67  1245.89   0.927
  sub71                     99.72       0.00       0.00       1.30      90.42       6.68      97.10        2.54  1502.27   0.974
  sub72                     99.72       0.00       0.00       1.16      91.34       5.82      97.16        1.34   739.63   0.974
  
  
  ******************
  Node Depth Summary
  ******************
  
  ---------------------------------------------------------------------------------
                                 Average  Maximum  Maximum  Time of Max    Reported
                                   Depth    Depth      HGL   Occurrence   Max Depth
  Node                 Type       Meters   Meters   Meters  days hr:min      Meters
  ---------------------------------------------------------------------------------
  WS02003060           JUNCTION     0.20     0.37     5.31     0  02:39        0.37
  WS02003066           JUNCTION     0.17     0.29     5.85     0  02:38        0.29
  WS02003067           JUNCTION     0.45     0.69     6.01     0  02:38        0.69
  WS02003069           JUNCTION     0.22     0.42     5.00     0  02:39        0.42
  WS02003072           JUNCTION     0.28     0.49     4.86     0  02:40        0.49
  WS02003073           JUNCTION     0.15     0.29     4.36     0  02:40        0.29
  WS02004401           JUNCTION     0.53     0.86     6.86     0  02:36        0.86
  WS02004402           JUNCTION     0.57     0.89     6.85     0  02:36        0.89
  WS02004403           JUNCTION     0.59     0.90     6.83     0  02:46        0.90
  WS02004404           JUNCTION     0.67     0.99     6.84     0  02:36        0.98
  WS02004405           JUNCTION     0.66     0.96     6.81     0  02:36        0.94
  WS02004406           JUNCTION     0.67     0.95     6.78     0  02:36        0.95
  WS02004407           JUNCTION     0.15     0.29     6.60     0  02:36        0.29
  WS02004409           JUNCTION     0.32     0.65     6.42     0  02:37        0.65
  WS02004410           JUNCTION     0.35     0.66     6.38     0  02:37        0.66
  WS02004411           JUNCTION     0.37     0.67     6.35     0  02:37        0.67
  WS02004412           JUNCTION     0.40     0.68     6.32     0  02:38        0.68
  WS02004413           JUNCTION     0.56     0.84     6.31     0  02:38        0.84
  WS02006109           JUNCTION     0.58     1.13     7.74     0  02:32        1.01
  WS02006110           JUNCTION     0.59     1.15     7.73     0  02:42        1.02
  WS02006111           JUNCTION     0.15     0.29     6.99     0  02:34        0.29
  WS02006112           JUNCTION     0.68     1.09     6.97     0  02:42        1.06
  WS02006113           JUNCTION     0.23     0.46     7.35     0  02:33        0.45
  WS02006115           JUNCTION     0.41     0.76     6.90     0  02:35        0.76
  WS02006116           JUNCTION     0.50     0.84     6.88     0  02:35        0.84
  WS02006228           JUNCTION     0.57     1.15     7.81     0  02:31        1.13
  WS02006229           JUNCTION     0.53     1.19     7.89     0  02:31        1.17
  WS02006230           JUNCTION     0.52     1.35     8.09     0  02:31        1.30
  WS02006231           JUNCTION     0.34     1.06     8.18     0  02:31        1.04
  WS02006232           JUNCTION     0.46     1.22     8.26     0  02:42        1.22
  WS02006234           JUNCTION     0.38     1.37     8.53     0  02:20        1.26
  WS02006235           JUNCTION     0.41     1.53     8.70     0  02:29        1.53
  WS02006238           JUNCTION     0.44     1.62     8.76     0  02:29        1.62
  WS02006239           JUNCTION     0.41     1.76     8.97     0  02:29        1.76
  WS02006240           JUNCTION     0.38     1.75     9.05     0  02:29        1.75
  WS02006242           JUNCTION     0.45     1.55     8.82     0  02:29        1.55
  WS02006243           JUNCTION     0.37     1.48     8.90     0  02:29        1.48
  WS02006245           JUNCTION     0.37     1.56     9.04     0  02:29        1.56
  WS02006247           JUNCTION     0.40     1.47     8.97     0  02:29        1.47
  WS02006248           JUNCTION     0.36     1.10     8.69     0  02:20        1.10
  WS02006249           JUNCTION     0.40     1.09     8.69     0  02:20        1.09
  WS02006251           JUNCTION     0.39     1.46     9.13     0  02:29        1.13
  WS02006252           JUNCTION     0.30     1.50     9.74     0  00:00        0.69
  WS02006256           JUNCTION     0.77     2.35     9.28     0  00:00        2.35
  WSF200               JUNCTION     0.14     0.28     5.52     0  02:38        0.28
  YS02001580           JUNCTION     0.20     1.05     9.59     0  01:59        0.77
  YS02001583           JUNCTION     0.23     1.14     9.64     0  01:59        0.83
  YS02001586           JUNCTION     0.37     1.13     9.30     0  01:59        1.13
  YS02001590           JUNCTION     0.51     1.40     9.26     0  02:45        1.40
  YS02001593           JUNCTION     0.43     1.32     9.18     0  01:59        1.29
  YS02001596           JUNCTION     0.59     1.68     9.10     0  01:59        1.68
  YS02001600           JUNCTION     0.70     1.87     9.00     0  01:58        1.87
  YS02001601           JUNCTION     0.91     2.06     8.90     0  01:58        2.06
  YS02001602           JUNCTION     0.80     1.87     8.77     0  02:06        1.87
  YS02001605           JUNCTION     0.74     1.78     8.68     0  02:40        1.78
  YS02001607           JUNCTION     0.68     1.65     8.49     0  02:12        1.65
  YS02001610           JUNCTION     0.72     1.68     8.48     0  02:07        1.68
  YS02001613           JUNCTION     0.68     1.67     8.51     0  02:25        1.67
  YS02001616           JUNCTION     0.61     1.61     8.52     0  02:20        1.61
  YS02001619           JUNCTION     0.59     1.61     8.54     0  02:20        1.61
  YS02001622           JUNCTION     0.57     1.61     8.51     0  02:26        1.61
  YS02001625           JUNCTION     0.83     1.78     8.38     0  02:07        1.78
  YS02001629           JUNCTION     0.74     1.85     8.40     0  02:11        1.85
  YS02001633           JUNCTION     0.81     2.06     8.51     0  02:25        2.06
  YS02001641           JUNCTION     0.76     1.95     8.39     0  02:24        1.95
  YS02001644           JUNCTION     0.74     1.92     8.35     0  02:14        1.92
  YS02001647           JUNCTION     0.50     1.79     8.40     0  02:14        1.77
  YS02001649           JUNCTION     0.56     2.02     8.41     0  02:24        2.01
  YS02001652           JUNCTION     0.42     1.97     8.56     0  02:14        1.89
  YS02001655           JUNCTION     0.32     2.05     8.90     0  02:11        1.74
  YS02001658           JUNCTION     0.24     2.05     9.20     0  02:14        1.55
  YS02001661           JUNCTION     0.24     1.39     8.80     0  02:24        1.38
  YS02001664           JUNCTION     0.11     0.94     8.87     0  02:24        0.92
  YS02001745           JUNCTION     0.13     1.00     8.51     0  02:24        0.99
  YS02001748           JUNCTION     0.22     1.40     8.48     0  02:24        1.39
  YS02001751           JUNCTION     0.27     1.61     8.48     0  02:14        1.56
  YS02001754           JUNCTION     0.36     1.84     8.45     0  02:10        1.78
  YS02001757           JUNCTION     0.57     2.09     8.35     0  02:24        2.09
  YS02001759           JUNCTION     0.50     2.10     8.47     0  02:24        2.10
  YS02001762           JUNCTION     0.49     2.06     8.46     0  02:23        2.06
  YS02001765           JUNCTION     0.47     2.02     8.47     0  02:24        2.02
  YS02001767           JUNCTION     0.46     1.97     8.46     0  02:23        1.96
  YS02001770           JUNCTION     0.48     1.95     8.44     0  02:11        1.95
  YS02001774           JUNCTION     0.54     2.05     8.47     0  02:11        2.05
  YS02001779           JUNCTION     0.35     1.68     8.37     0  02:09        1.68
  YS02001783           JUNCTION     0.42     1.27     7.41     0  02:26        1.27
  YS02001784           JUNCTION     0.41     1.14     7.21     0  02:26        1.14
  YS02001786           JUNCTION     0.34     0.88     6.91     0  02:25        0.88
  YS02001788           JUNCTION     0.25     0.63     6.60     0  02:23        0.62
  YS02001790           JUNCTION     0.29     0.73     6.38     0  02:24        0.73
  YS02001791           JUNCTION     0.18     0.45     5.92     0  02:24        0.44
  YS02001793           JUNCTION     0.10     0.28     5.11     0  02:19        0.28
  YS02001882           JUNCTION     0.51     1.70     8.42     0  02:26        1.69
  YS02001884           JUNCTION     0.60     1.79     8.41     0  02:26        1.79
  YS02001887           JUNCTION     0.68     1.87     8.41     0  02:25        1.87
  YS02001890           JUNCTION     0.70     1.81     8.32     0  02:08        1.81
  YS02001895           JUNCTION     0.47     1.57     8.31     0  02:08        1.56
  YS02001898           JUNCTION     0.48     1.57     8.30     0  02:26        1.57
  YS02001901           JUNCTION     0.59     1.68     8.29     0  02:15        1.67
  YS02001904           JUNCTION     0.57     1.64     8.27     0  02:32        1.64
  YS02001907           JUNCTION     0.89     1.96     8.25     0  02:08        1.96
  YS02001910           JUNCTION     0.70     2.02     8.53     0  02:26        2.02
  YS02001915           JUNCTION     0.52     2.00     8.72     0  02:23        2.00
  YS02001918           JUNCTION     0.32     1.73     8.80     0  02:25        1.72
  YS02001920           JUNCTION     0.40     1.83     8.84     0  02:25        1.82
  YS02001923           JUNCTION     0.25     1.61     8.87     0  02:25        1.60
  YS02001926           JUNCTION     0.27     1.46     8.90     0  02:25        1.45
  YS02001929           JUNCTION     0.17     1.25     8.94     0  02:25        1.23
  YS02006553           JUNCTION     0.90     1.99     8.27     0  02:26        1.98
  YS02006556           JUNCTION     0.87     1.99     8.30     0  02:25        1.99
  YS02006558           JUNCTION     0.91     2.04     8.31     0  02:25        2.04
  YS02006561           JUNCTION     0.26     0.92     7.58     0  02:23        0.92
  YS02163301           JUNCTION     0.76     1.94     8.46     0  02:25        1.94
  YS02163601           JUNCTION     0.83     2.05     8.45     0  02:25        2.05
  YS02164001           JUNCTION     0.75     1.96     8.42     0  02:25        1.95
  CC-1                 OUTFALL      0.00     0.00     0.00     0  00:00        0.00
  CC-2                 OUTFALL      0.00     0.00     0.00     0  00:00        0.00
  JK-1                 OUTFALL      0.00     0.00     0.00     0  00:00        0.00
  JK-2                 OUTFALL      0.00     0.00     0.00     0  00:00        0.00
  WSC                  OUTFALL      0.15     0.29     0.96     0  02:41        0.29
  CC-storage           STORAGE      0.80     1.75     7.25     0  02:53        1.75
  JK-storage           STORAGE      1.89     4.21     5.01     0  02:03        4.17
  
  
  *******************
  Node Inflow Summary
  *******************
  
  -------------------------------------------------------------------------------------------------
                                  Maximum  Maximum                  Lateral       Total        Flow
                                  Lateral    Total  Time of Max      Inflow      Inflow     Balance
                                   Inflow   Inflow   Occurrence      Volume      Volume       Error
  Node                 Type           LPS      LPS  days hr:min    10^6 ltr    10^6 ltr     Percent
  -------------------------------------------------------------------------------------------------
  WS02003060           JUNCTION     16.53   528.14     0  02:38       0.476        3.82       0.054
  WS02003066           JUNCTION      0.00   511.69     0  02:38           0        3.35       0.036
  WS02003067           JUNCTION      0.00   511.45     0  02:38           0        3.35       0.121
  WS02003069           JUNCTION      0.32   528.87     0  02:39     0.00922        3.83       0.092
  WS02003072           JUNCTION      0.00   527.76     0  02:39           0        3.83       0.165
  WS02003073           JUNCTION      1.82   529.19     0  02:40      0.0524        3.87       0.131
  WS02004401           JUNCTION      0.00   532.85     0  02:34           0        3.45       0.288
  WS02004402           JUNCTION      0.00   527.67     0  02:34           0        3.44       0.295
  WS02004403           JUNCTION      0.00   526.82     0  02:36           0        3.43       0.288
  WS02004404           JUNCTION      0.16   537.92     0  02:44     0.00467        3.42       0.229
  WS02004405           JUNCTION      0.04   583.51     0  02:46      0.0011        3.42       0.332
  WS02004406           JUNCTION      0.00   528.10     0  02:36           0        3.41       0.600
  WS02004407           JUNCTION      0.00   523.98     0  02:36           0        3.39       0.030
  WS02004409           JUNCTION      0.00   523.18     0  02:36           0        3.38       0.069
  WS02004410           JUNCTION      0.00   521.36     0  02:37           0        3.38       0.117
  WS02004411           JUNCTION      0.00   515.50     0  02:37           0        3.38       0.154
  WS02004412           JUNCTION      0.00   515.04     0  02:37           0        3.37       0.209
  WS02004413           JUNCTION      0.00   512.86     0  02:38           0        3.37       0.376
  WS02006109           JUNCTION      1.23   555.29     0  02:42      0.0354         3.5       0.292
  WS02006110           JUNCTION      0.00   556.27     0  02:32           0        3.49       0.179
  WS02006111           JUNCTION      0.00   559.94     0  02:23           0        3.48       0.024
  WS02006112           JUNCTION      0.00   541.57     0  02:34           0        3.48       0.494
  WS02006113           JUNCTION      0.00   569.10     0  02:42           0        3.48       0.041
  WS02006115           JUNCTION      0.00   554.05     0  02:32           0        3.46       0.182
  WS02006116           JUNCTION      0.00   538.53     0  02:34           0        3.45       0.160
  WS02006228           JUNCTION      0.00   553.43     0  02:42           0        3.47       0.133
  WS02006229           JUNCTION      0.00   554.27     0  02:42           0        3.47       0.108
  WS02006230           JUNCTION     10.28   584.92     0  02:29       0.296        3.47       0.156
  WS02006231           JUNCTION      0.00   582.27     0  02:31           0        3.18       0.002
  WS02006232           JUNCTION      0.00   581.53     0  02:31           0        3.18       0.141
  WS02006234           JUNCTION      0.00   577.06     0  02:31           0        3.18      -0.148
  WS02006235           JUNCTION      0.00   570.10     0  02:31           0         3.2       0.161
  WS02006238           JUNCTION      0.00   424.04     0  02:45           0        2.89      -0.124
  WS02006239           JUNCTION      0.00   422.64     0  02:45           0        2.87      -0.229
  WS02006240           JUNCTION      0.00   418.87     0  02:40           0        2.87      -0.026
  WS02006242           JUNCTION      0.00   419.07     0  02:40           0        2.86      -0.031
  WS02006243           JUNCTION      0.00   419.09     0  02:45           0        2.86      -0.081
  WS02006245           JUNCTION      0.00   420.57     0  02:45           0        2.87       0.415
  WS02006247           JUNCTION      0.00   421.72     0  02:45           0        2.87       0.021
  WS02006248           JUNCTION      0.00   421.49     0  02:45           0        2.87      -0.125
  WS02006249           JUNCTION      0.00   459.02     0  00:00           0        2.94       0.480
  WS02006251           JUNCTION      0.08   406.83     0  02:20     0.00222        2.94       0.023
  WS02006252           JUNCTION      0.00   400.00     0  00:00           0        2.92      -0.564
  WS02006256           JUNCTION      0.00   300.00     0  00:00           0       0.435      -1.826
  WSF200               JUNCTION      0.00   511.80     0  02:38           0        3.35       0.013
  YS02001580           JUNCTION      0.00    53.67     0  01:59           0     0.00434       0.520
  YS02001583           JUNCTION      0.00    86.59     0  01:58           0      0.0163      -2.153
  YS02001586           JUNCTION   1245.89  1245.89     0  02:26        2.67        2.68       0.027
  YS02001590           JUNCTION      0.00   318.36     0  02:40           0        1.72      -0.037
  YS02001593           JUNCTION      0.00   318.96     0  02:40           0        1.72       0.000
  YS02001596           JUNCTION      0.00   318.20     0  02:38           0        1.72      -0.002
  YS02001600           JUNCTION      0.00   318.05     0  02:31           0        1.72       0.021
  YS02001601           JUNCTION   2080.14  2397.79     0  02:25        3.61        5.33       0.005
  YS02001602           JUNCTION      0.00   497.99     0  01:59           0        2.79       0.012
  YS02001605           JUNCTION      0.00   497.83     0  01:59           0        2.63       0.018
  YS02001607           JUNCTION      0.00   497.61     0  01:59           0        2.62       0.076
  YS02001610           JUNCTION      0.00   955.86     0  02:30           0        3.27       0.065
  YS02001613           JUNCTION      0.00   620.16     0  02:30           0        2.54       0.069
  YS02001616           JUNCTION      0.00   620.11     0  02:30           0        2.54       0.016
  YS02001619           JUNCTION   2197.80  2197.80     0  02:26         4.3        6.19      -0.001
  YS02001622           JUNCTION      0.00  1053.98     0  02:30           0        5.38       0.000
  YS02001625           JUNCTION      0.00  1505.45     0  02:30           0        5.84       0.159
  YS02001629           JUNCTION      0.00   935.88     0  02:07           0        4.32       0.020
  YS02001633           JUNCTION   1563.99  1563.99     0  02:25        2.66        6.37       0.054
  YS02001641           JUNCTION      0.00  1345.49     0  02:07           0        5.78       0.050
  YS02001644           JUNCTION   1393.14  2488.57     0  02:25        2.31        8.14       0.041
  YS02001647           JUNCTION      0.00  1712.70     0  02:07           0        6.85       0.005
  YS02001649           JUNCTION      0.00  1975.09     0  02:10           0        8.91       0.001
  YS02001652           JUNCTION      0.00  1362.44     0  02:25           0        2.13      -0.047
  YS02001655           JUNCTION      0.15  1362.31     0  02:25     0.00443        2.13      -0.021
  YS02001658           JUNCTION      0.00  1362.21     0  02:25           0        2.13      -0.004
  YS02001661           JUNCTION      0.00  1362.30     0  02:25           0        2.13       0.011
  YS02001664           JUNCTION   1363.16  1363.16     0  02:25        2.13        2.13      -0.009
  YS02001745           JUNCTION    840.75   840.75     0  02:25        1.27        1.27       0.105
  YS02001748           JUNCTION      0.04   843.50     0  02:25      0.0013        1.27      -0.140
  YS02001751           JUNCTION      0.01   843.49     0  02:25    0.000317        1.27       0.057
  YS02001754           JUNCTION      0.26   843.71     0  02:25     0.00749        1.28      -0.099
  YS02001757           JUNCTION      0.00  3311.42     0  02:17           0        13.9       0.035
  YS02001759           JUNCTION   1170.69  1427.18     0  02:24        1.76        3.77      -0.009
  YS02001762           JUNCTION      0.00   760.01     0  02:16           0        2.01      -0.001
  YS02001765           JUNCTION      0.00   759.16     0  02:16           0        2.01      -0.000
  YS02001767           JUNCTION      0.54   759.59     0  02:16      0.0154        2.01       0.001
  YS02001770           JUNCTION   1671.05  1671.05     0  02:25        2.67        2.71      -0.014
  YS02001774           JUNCTION      0.00   851.99     0  02:27           0       0.623       0.162
  YS02001779           JUNCTION      0.01   851.45     0  02:28    0.000144       0.576      -0.040
  YS02001783           JUNCTION      0.00  1174.84     0  02:25           0        5.28       0.006
  YS02001784           JUNCTION      1.06  1175.47     0  02:25      0.0305        5.32       0.011
  YS02001786           JUNCTION      0.06  1176.32     0  02:25     0.00162        5.32       0.014
  YS02001788           JUNCTION      0.07  1176.59     0  02:25     0.00204        5.32       0.006
  YS02001790           JUNCTION      0.15  1186.11     0  02:24     0.00446        5.32       0.023
  YS02001791           JUNCTION      0.00  1301.38     0  02:23           0        5.32      -0.027
  YS02001793           JUNCTION      0.00  1260.36     0  02:24           0        5.32       0.003
  YS02001882           JUNCTION      0.00    23.59     0  02:04           0      0.0135       5.179
  YS02001884           JUNCTION      0.00    29.95     0  02:03           0      0.0499       5.157
  YS02001887           JUNCTION   1236.08  1236.11     0  02:25        1.82        1.86       0.244
  YS02001890           JUNCTION      0.00  1237.00     0  02:25           0        1.81       0.291
  YS02001895           JUNCTION      0.00   517.41     0  02:29           0        1.49       0.119
  YS02001898           JUNCTION      0.00   517.64     0  02:30           0        1.49      -0.007
  YS02001901           JUNCTION      0.00   517.68     0  02:23           0         1.5       0.232
  YS02001904           JUNCTION      0.00   517.56     0  02:24           0         1.5       0.194
  YS02001907           JUNCTION      0.00  3050.05     0  02:25           0        5.56       0.316
  YS02001910           JUNCTION      0.00  1993.05     0  02:25           0        3.92       0.182
  YS02001915           JUNCTION   1502.29  2248.62     0  02:25        2.54        3.97       0.040
  YS02001918           JUNCTION      0.00   748.60     0  02:25           0        1.44       0.008
  YS02001920           JUNCTION      2.87   747.40     0  02:25      0.0827        1.43       0.065
  YS02001923           JUNCTION      0.04   742.37     0  02:25     0.00109        1.35       0.007
  YS02001926           JUNCTION      0.05   741.59     0  02:25      0.0015        1.34       0.016
  YS02001929           JUNCTION    739.63   739.63     0  02:25        1.34        1.34      -0.009
  YS02006553           JUNCTION      0.00   805.42     0  02:43           0        2.95       0.419
  YS02006556           JUNCTION      0.00   805.83     0  02:43           0        2.96       0.267
  YS02006558           JUNCTION   1708.69  1708.69     0  02:25        2.67        5.46       0.071
  YS02006561           JUNCTION      0.00  1175.20     0  02:25           0        5.28      -0.004
  YS02163301           JUNCTION      0.00   936.76     0  02:07           0        4.32       0.035
  YS02163601           JUNCTION      0.11  1345.36     0  02:07     0.00317        5.77       0.085
  YS02164001           JUNCTION      0.00  1345.34     0  02:07           0        5.77       0.037
  CC-1                 OUTFALL       0.00   683.00     0  00:00           0        5.74       0.000
  CC-2                 OUTFALL       0.00   683.00     0  00:00           0        6.11       0.000
  JK-1                 OUTFALL       0.00  1000.00     0  00:00           0       0.131       0.000
  JK-2                 OUTFALL       0.00  1000.00     0  00:00           0        4.86       0.000
  WSC                  OUTFALL       0.00   527.62     0  02:41           0        3.87       0.000
  CC-storage           STORAGE       0.00  3312.13     0  02:16           0        16.1      -0.199
  JK-storage           STORAGE       0.00  1295.68     0  02:24           0        5.47      -0.286
  
  
  **********************
  Node Surcharge Summary
  **********************
  
  Surcharging occurs when water rises above the top of the highest conduit.
  ---------------------------------------------------------------------
                                               Max. Height   Min. Depth
                                   Hours       Above Crown    Below Rim
  Node                 Type      Surcharged         Meters       Meters
  ---------------------------------------------------------------------
  WS02006109           JUNCTION        1.44          0.307        1.513
  WS02006110           JUNCTION        0.15          0.239        1.611
  WS02006112           JUNCTION        0.18          0.086        1.594
  WS02006228           JUNCTION        1.43          0.325        1.875
  WS02006229           JUNCTION        1.44          0.395        2.055
  WS02006230           JUNCTION        0.16          0.268        1.302
  WS02006231           JUNCTION        0.22          0.351        1.179
  WS02006232           JUNCTION        1.47          0.520        0.960
  WS02006234           JUNCTION        0.35          0.649        0.591
  WS02006235           JUNCTION        1.41          0.821        0.469
  WS02006238           JUNCTION        1.44          0.896        0.534
  WS02006239           JUNCTION        1.42          1.016        0.274
  WS02006240           JUNCTION        1.43          1.042        0.348
  WS02006242           JUNCTION        1.47          0.820        0.000
  WS02006243           JUNCTION        1.43          0.770        0.000
  WS02006245           JUNCTION        1.42          0.850        0.000
  WS02006247           JUNCTION        1.43          0.760        0.000
  WS02006248           JUNCTION        1.42          0.380        0.000
  WS02006249           JUNCTION        1.43          0.390        0.000
  WS02006251           JUNCTION        0.25          0.429        0.751
  WS02006252           JUNCTION        1.65          1.100        0.000
  WS02006256           JUNCTION        5.63          2.050        0.000
  YS02001580           JUNCTION        0.95          0.450        0.000
  YS02001583           JUNCTION        0.96          0.500        0.000
  YS02001586           JUNCTION        1.08          0.510        0.000
  YS02001590           JUNCTION        1.16          0.750        0.000
  YS02001593           JUNCTION        1.16          0.701        0.139
  YS02001596           JUNCTION        1.29          0.952        0.118
  YS02001600           JUNCTION        1.46          1.190        0.000
  YS02001601           JUNCTION        1.81          1.440        0.000
  YS02001602           JUNCTION        1.70          1.270        0.000
  YS02001605           JUNCTION        1.65          1.180        0.000
  YS02001607           JUNCTION        1.13          0.646        0.034
  YS02001610           JUNCTION        1.15          0.680        0.000
  YS02001613           JUNCTION        1.12          0.672        0.028
  YS02001616           JUNCTION        1.08          0.610        0.000
  YS02001619           JUNCTION        1.07          0.610        0.000
  YS02001622           JUNCTION        1.07          0.608        0.012
  YS02001625           JUNCTION        1.25          0.780        0.000
  YS02001629           JUNCTION        0.99          0.470        0.000
  YS02001633           JUNCTION        1.28          1.037        0.023
  YS02001641           JUNCTION        1.20          0.953        0.147
  YS02001644           JUNCTION        1.16          0.920        0.000
  YS02001647           JUNCTION        0.90          0.787        0.113
  YS02001649           JUNCTION        0.99          1.018        0.032
  YS02001652           JUNCTION        0.82          0.937        0.193
  YS02001655           JUNCTION        0.63          1.049        0.151
  YS02001658           JUNCTION        0.37          1.054        0.246
  YS02001661           JUNCTION        0.16          0.324        1.066
  YS02001748           JUNCTION        0.30          0.319        0.871
  YS02001751           JUNCTION        0.47          0.605        0.595
  YS02001754           JUNCTION        0.72          0.788        0.362
  YS02001757           JUNCTION        1.04          1.094        0.116
  YS02001759           JUNCTION        0.96          1.102        0.108
  YS02001762           JUNCTION        0.93          1.063        0.087
  YS02001765           JUNCTION        0.89          1.018        0.082
  YS02001767           JUNCTION        0.88          0.967        0.063
  YS02001770           JUNCTION        0.85          0.920        0.000
  YS02001774           JUNCTION        0.92          1.050        0.000
  YS02001779           JUNCTION        0.70          0.680        0.000
  YS02001783           JUNCTION        0.80          0.468        1.132
  YS02001784           JUNCTION        0.77          0.340        1.150
  YS02001786           JUNCTION        0.63          0.082        1.348
  YS02001882           JUNCTION        0.73          0.700        0.130
  YS02001884           JUNCTION        0.74          0.732        0.138
  YS02001887           JUNCTION        0.78          0.822        0.128
  YS02001890           JUNCTION        0.80          0.760        0.000
  YS02001895           JUNCTION        0.71          0.566        0.184
  YS02001898           JUNCTION        0.70          0.539        0.201
  YS02001901           JUNCTION        0.77          0.677        0.193
  YS02001904           JUNCTION        0.75          0.638        0.212
  YS02001907           JUNCTION        1.14          0.950        0.000
  YS02001910           JUNCTION        0.84          1.020        0.080
  YS02001915           JUNCTION        0.72          1.000        0.000
  YS02001918           JUNCTION        0.62          0.729        0.081
  YS02001920           JUNCTION        0.63          0.831        0.309
  YS02001923           JUNCTION        0.24          0.399        0.421
  YS02001926           JUNCTION        0.28          0.458        0.442
  YS02001929           JUNCTION        0.12          0.247        0.533
  YS02006553           JUNCTION        1.17          0.985        0.205
  YS02006556           JUNCTION        0.97          0.949        0.401
  YS02006558           JUNCTION        0.94          0.942        0.458
  YS02006561           JUNCTION        0.58          0.121        1.029
  YS02163301           JUNCTION        1.26          0.939        0.091
  YS02163601           JUNCTION        1.32          1.051        0.029
  YS02164001           JUNCTION        1.21          0.957        0.143
  
  
  *********************
  Node Flooding Summary
  *********************
  
  Flooding refers to all water that overflows a node, whether it ponds or not.
  --------------------------------------------------------------------------
                                                             Total   Maximum
                                 Maximum   Time of Max       Flood    Ponded
                        Hours       Rate    Occurrence      Volume     Depth
  Node                 Flooded       LPS   days hr:min    10^6 ltr    Meters
  --------------------------------------------------------------------------
  WS02006242              0.01      8.28      0  02:29       0.000     0.000
  WS02006243              0.01      4.63      0  02:29       0.000     0.000
  WS02006245              0.01      3.65      0  02:29       0.000     0.000
  WS02006247              0.01      3.56      0  02:29       0.000     0.000
  WS02006248              0.01     16.03      0  02:29       0.000     0.000
  WS02006249              0.23     79.79      0  02:32       0.052     0.000
  WS02006252              0.01    245.63      0  00:00       0.000     0.000
  WS02006256              0.40    293.19      0  00:00       0.133     0.000
  YS02001580              0.01     22.37      0  01:59       0.000     0.000
  YS02001583              0.01     38.40      0  01:59       0.000     0.000
  YS02001586              0.76    928.35      0  02:26       0.952     0.000
  YS02001590              0.01      0.27      0  02:45       0.000     0.000
  YS02001600              0.01      0.52      0  01:59       0.000     0.000
  YS02001601              1.01   1999.56      0  02:25       2.535     0.000
  YS02001602              0.82     62.00      0  02:33       0.169     0.000
  YS02001605              0.01      0.17      0  02:40       0.000     0.000
  YS02001610              0.74    955.52      0  02:30       1.373     0.000
  YS02001616              0.06      1.90      0  02:23       0.000     0.000
  YS02001619              0.17    531.25      0  02:26       0.169     0.000
  YS02001625              0.70   1505.24      0  02:30       2.113     0.000
  YS02001629              0.24    386.25      0  02:25       0.137     0.000
  YS02001644              0.35   2488.35      0  02:25       1.348     0.000
  YS02001770              0.11    574.82      0  02:25       0.114     0.000
  YS02001774              0.01      9.73      0  02:11       0.000     0.000
  YS02001779              0.30    851.29      0  02:28       0.555     0.000
  YS02001890              0.30    719.95      0  02:25       0.315     0.000
  YS02001907              0.55   3048.44      0  02:25       2.745     0.000
  YS02001915              0.08    256.02      0  02:25       0.040     0.000
  
  
  **********************
  Storage Volume Summary
  **********************
  
  ------------------------------------------------------------------------------------------------
                         Average    Avg   Evap  Exfil     Maximum    Max    Time of Max    Maximum
                          Volume   Pcnt   Pcnt   Pcnt      Volume   Pcnt     Occurrence    Outflow
  Storage Unit           1000 m³   Full   Loss   Loss     1000 m³   Full    days hr:min        LPS
  ------------------------------------------------------------------------------------------------
  CC-storage               2.231   34.8    0.0    0.0       4.874   76.0       0  02:53    1783.53
  JK-storage               0.095   32.6    0.0    0.0       0.211   72.5       0  02:03    2300.00
  
  
  ***********************
  Outfall Loading Summary
  ***********************
  
  -----------------------------------------------------------
                         Flow       Avg       Max       Total
                         Freq      Flow      Flow      Volume
  Outfall Node           Pcnt       LPS       LPS    10^6 ltr
  -----------------------------------------------------------
  CC-1                  59.20    683.00    683.00       5.737
  CC-2                  64.03    683.00    683.00       6.107
  JK-1                   1.24   1000.00   1000.00       0.131
  JK-2                  34.78   1000.00   1000.00       4.863
  WSC                   99.95    191.55    527.62       3.868
  -----------------------------------------------------------
  System                51.84   3557.55   3366.23      20.708
  
  
  ********************
  Link Flow Summary
  ********************
  
  -----------------------------------------------------------------------------
                                 Maximum  Time of Max   Maximum    Max/    Max/
                                  |Flow|   Occurrence   |Veloc|    Full    Full
  Link                 Type          LPS  days hr:min     m/sec    Flow   Depth
  -----------------------------------------------------------------------------
  1                    CONDUIT    527.62     0  02:41      2.79    0.18    0.29
  WS02003060WS02003069 CONDUIT    528.55     0  02:39      1.63    0.21    0.33
  WS02003066WSF200     CONDUIT    511.80     0  02:38      2.82    0.09    0.22
  WS02003067WS02003066 CONDUIT    511.69     0  02:38      1.17    0.16    0.41
  WS02003069WS02003072 CONDUIT    527.76     0  02:39      1.35    0.25    0.38
  WS02003072WS02003073 CONDUIT    527.37     0  02:40      1.41    1.14    0.37
  WS02004401WS02004402 CONDUIT    527.67     0  02:34      0.98    0.63    0.87
  WS02004402WS02004403 CONDUIT    526.82     0  02:36      0.97    0.76    0.89
  WS02004403WS02004404 CONDUIT    537.76     0  02:44      0.92    0.39    0.95
  WS02004404WS02004405 CONDUIT    583.47     0  02:46      1.08    5.72    0.96
  WS02004405WS02004406 CONDUIT    528.10     0  02:36      0.99    1.04    0.95
  WS02004406WS02004407 CONDUIT    523.98     0  02:36      1.02    0.23    0.62
  WS02004407WS02004409 CONDUIT    523.18     0  02:36      1.48    0.19    0.47
  WS02004409WS02004410 CONDUIT    521.36     0  02:37      0.97    0.67    0.66
  WS02004410WS02004411 CONDUIT    515.50     0  02:37      0.93    0.70    0.67
  WS02004411WS02004412 CONDUIT    515.04     0  02:37      0.91    0.73    0.68
  WS02004412WS02004413 CONDUIT    512.86     0  02:38      0.80    0.34    0.76
  WS02004413WS02003067 CONDUIT    511.45     0  02:38      1.08    0.22    0.58
  WS02006109WS02006110 CONDUIT    556.27     0  02:32      1.11    1.07    1.00
  WS02006110WS02006113 CONDUIT    569.10     0  02:42      1.37    0.52    0.78
  WS02006111WS02006112 CONDUIT    541.57     0  02:34      1.81    0.26    0.67
  WS02006112WS02006115 CONDUIT    554.05     0  02:32      0.79    0.33    0.87
  WS02006113WS02006111 CONDUIT    559.94     0  02:23      2.47    0.67    0.46
  WS02006115WS02006116 CONDUIT    538.53     0  02:34      0.97    0.69    0.77
  WS02006116WS02004401 CONDUIT    532.85     0  02:34      0.98    0.73    0.85
  WS02006228WS02006109 CONDUIT    554.06     0  02:42      1.10    2.42    1.00
  WS02006229WS02006228 CONDUIT    553.43     0  02:42      1.14    1.83    1.00
  WS02006230WS02006229 CONDUIT    554.27     0  02:42      1.44   12.33    1.00
  WS02006231WS02006230 CONDUIT    574.64     0  02:29      1.57    8.72    1.00
  WS02006232WS02006231 CONDUIT    582.27     0  02:31      1.52    1.22    1.00
  WS02006234WS02006232 CONDUIT    581.53     0  02:31      1.51    1.18    1.00
  WS02006235WS02006234 CONDUIT    577.06     0  02:31      1.50    6.09    1.00
  WS02006238WS02006235 CONDUIT    423.64     0  02:45      1.45    0.95    1.00
  WS02006239WS02006238 CONDUIT    424.04     0  02:45      1.10    1.36    1.00
  WS02006240WS02006239 CONDUIT    422.64     0  02:45      1.24    1.33    1.00
  WS02006242WS02006240 CONDUIT    418.87     0  02:40      1.13    1.66    1.00
  WS02006243WS02006242 CONDUIT    419.07     0  02:40      1.40    0.90    1.00
  WS02006245WS02006243 CONDUIT    419.09     0  02:45      1.45    1.24    1.00
  WS02006247WS02006245 CONDUIT    420.57     0  02:45      1.43    3.33    1.00
  WS02006248WS02006247 CONDUIT    421.72     0  02:45      1.44    0.92    1.00
  WS02006249WS02006248 CONDUIT    421.49     0  02:45      1.36    2.31    1.00
  WS02006251WS02006249 CONDUIT    459.02     0  00:00      1.99    1.32    1.00
  WS02006252WS02006251 CONDUIT    406.75     0  02:20     24.61    1.49    1.00
  WS02006256WS02006235 CONDUIT    288.91     0  00:00      4.23    3.06    1.00
  WSF200WS02003060     CONDUIT    511.61     0  02:38      2.04    0.11    0.27
  YS02001580YS02001583 CONDUIT     53.67     0  01:59      0.44    0.21    1.00
  YS02001583YS02001586 CONDUIT     86.59     0  01:58      0.37    0.13    1.00
  YS02001586YS02001590 CONDUIT    318.36     0  02:40      1.23    0.56    1.00
  YS02001590YS02001593 CONDUIT    318.96     0  02:40      1.13    2.00    1.00
  YS02001593YS02001596 CONDUIT    318.20     0  02:38      1.77    0.50    1.00
  YS02001596YS02001600 CONDUIT    318.05     0  02:31      1.30    0.62    1.00
  YS02001600YS02001601 CONDUIT    318.00     0  02:32      1.12    0.55    1.00
  YS02001601YS02001602 CONDUIT    497.99     0  01:59      1.76    1.80    1.00
  YS02001602YS02001605 CONDUIT    497.83     0  01:59      1.76   10.53    1.00
  YS02001605YS02001607 CONDUIT    497.61     0  01:59      1.76    2.73    1.00
  YS02001607YS02001610 CONDUIT    496.05     0  01:59      0.63    0.47    1.00
  YS02001610YS02001613 CONDUIT    619.75     0  02:30      0.79    0.71    1.00
  YS02001613YS02001616 CONDUIT    620.16     0  02:30      0.79    0.53    1.00
  YS02001616YS02001619 CONDUIT    620.11     0  02:30      0.79    1.08    1.00
  YS02001619YS02001622 CONDUIT   1053.98     0  02:30      1.34    1.55    1.00
  YS02001622YS02001625 CONDUIT   1053.69     0  02:30      1.34    0.56    1.00
  YS02001625YS02001629 CONDUIT    935.88     0  02:07      1.19    0.45    1.00
  YS02001629YS02163301 CONDUIT    936.76     0  02:07      1.19    1.15    1.00
  YS02001633YS02163601 CONDUIT   1345.25     0  02:07      1.71    1.41    1.00
  YS02001641YS02001644 CONDUIT   1345.28     0  02:07      1.71    4.35    1.00
  YS02001644YS02001647 CONDUIT   1712.70     0  02:07      2.20    1.01    1.00
  YS02001647YS02001649 CONDUIT   1733.22     0  02:08      2.29    0.92    1.00
  YS02001649YS02001757 CONDUIT   1975.09     0  02:10      2.51    1.20    1.00
  YS02001652YS02001649 CONDUIT   1362.49     0  02:25      1.73    0.68    1.00
  YS02001655YS02001652 CONDUIT   1362.44     0  02:25      1.73    0.66    1.00
  YS02001658YS02001655 CONDUIT   1362.16     0  02:25      1.79    0.58    1.00
  YS02001661YS02001658 CONDUIT   1362.21     0  02:25      2.22    0.53    1.00
  YS02001664YS02001661 CONDUIT   1362.30     0  02:25      2.18    0.43    0.97
  YS02001745YS02001748 CONDUIT    843.46     0  02:25      2.05    0.32    1.00
  YS02001748YS02001751 CONDUIT    843.48     0  02:25      1.60    0.43    1.00
  YS02001751YS02001754 CONDUIT    843.45     0  02:25      1.36    0.41    1.00
  YS02001754YS02001757 CONDUIT    843.73     0  02:25      1.07    0.34    1.00
  YS02001757CaochengTiaoxuchi CONDUIT   3312.13     0  02:16      4.22    1.43    1.00
  YS02001759YS02001757 CONDUIT   1426.92     0  02:24      1.82    1.01    1.00
  YS02001762YS02001759 CONDUIT    760.59     0  02:16      0.97    0.88    1.00
  YS02001765YS02001762 CONDUIT    760.01     0  02:16      0.97    0.71    1.00
  YS02001767YS02001765 CONDUIT    759.16     0  02:16      0.97    0.95    1.00
  YS02001770YS02001767 CONDUIT    759.05     0  02:16      0.97    3.01    1.00
  YS02001774YS02001770 CONDUIT    851.99     0  02:27      1.08    0.54    1.00
  YS02001779YS02001774 CONDUIT    851.44     0  02:28      1.08    0.43    1.00
  YS02001783YS02001784 CONDUIT   1174.41     0  02:25      2.34    1.62    1.00
  YS02001784YS02001785 CONDUIT   1176.26     0  02:25      2.34    2.74    1.00
  YS02001786YS02001788 CONDUIT   1176.52     0  02:25      2.50    2.27    0.89
  YS02001788YS02001790 CONDUIT   1185.95     0  02:24      2.73    0.87    0.85
  YS02001790YS02001791 CONDUIT   1301.38     0  02:23      3.43    1.42    0.71
  YS02001791YS02001793 CONDUIT   1260.36     0  02:24      6.65    0.54    0.44
  YS02001793JiankangQianchi CONDUIT   1295.68     0  02:24      2.56    0.10    0.64
  YS02001882YS02001884 CONDUIT     23.59     0  02:04      0.17    0.03    1.00
  YS02001884YS02001887 CONDUIT     32.48     0  02:56      0.12    0.04    1.00
  YS02001887YS02001890 CONDUIT   1237.00     0  02:25      1.57    2.12    1.00
  YS02001890YS02001895 CONDUIT    517.41     0  02:29      0.66    0.24    1.00
  YS02001895YS02001898 CONDUIT    517.64     0  02:30      0.66    0.90    1.00
  YS02001898YS02001901 CONDUIT    517.68     0  02:23      0.66    0.33    1.00
  YS02001901YS02001904 CONDUIT    517.56     0  02:24      0.66    0.80    1.00
  YS02001904YS02001907 CONDUIT    518.42     0  02:25      0.66    0.18    1.00
  YS02001907YS02006553 CONDUIT    805.42     0  02:43      0.89    0.95    1.00
  YS02001910YS02001907 CONDUIT   1992.99     0  02:26      2.54    1.12    1.00
  YS02001915YS02001910 CONDUIT   1993.05     0  02:25      2.54    0.99    1.00
  YS02001918YS02001915 CONDUIT    749.78     0  02:25      0.95    0.41    1.00
  YS02001920YS02001918 CONDUIT    748.60     0  02:25      0.95    0.72    1.00
  YS02001923YS02001920 CONDUIT    744.53     0  02:25      0.95    0.33    1.00
  YS02001926YS02001923 CONDUIT    742.33     0  02:25      0.95    1.06    1.00
  YS02001929YS02001926 CONDUIT    741.54     0  02:25      1.05    0.35    1.00
  YS02006553YS02006556 CONDUIT    805.83     0  02:43      1.03    0.69    1.00
  YS02006556YS02006558 CONDUIT    806.74     0  02:43      1.03    0.64    1.00
  YS02006558YS02006561 CONDUIT   1175.20     0  02:25      4.16    2.60    1.00
  YS02006561YS02001783 CONDUIT   1174.84     0  02:25      2.34    0.61    1.00
  YS02163301YS02001633 CONDUIT    936.89     0  02:07      1.19    0.88    1.00
  YS02163601YS02164001 CONDUIT   1345.34     0  02:07      1.71    1.19    1.00
  YS02164001YS02001641 CONDUIT   1345.49     0  02:07      1.71    1.84    1.00
  CC-R1                PUMP       683.00     0  00:00              1.00
  CC-R2                PUMP       683.00     0  00:00              1.00
  CC-S1                PUMP       200.00     0  00:00              1.00
  CC-S2                PUMP       200.00     0  00:00              1.00
  JK-R1                PUMP      1000.00     0  00:00              1.00
  JK-R2                PUMP      1000.00     0  00:00              1.00
  JK-S                 PUMP       300.00     0  00:00              1.00
  
  
  ***************************
  Flow Classification Summary
  ***************************
  
  -------------------------------------------------------------------------------------
                      Adjusted    ---------- Fraction of Time in Flow Class ---------- 
                       /Actual         Up    Down  Sub   Sup   Up    Down  Norm  Inlet 
  Conduit               Length    Dry  Dry   Dry   Crit  Crit  Crit  Crit  Ltd   Ctrl  
  -------------------------------------------------------------------------------------
  1                       1.00   0.00  0.00  0.00  0.00  1.00  0.00  0.00  0.54  0.00
  WS02003060WS02003069    1.00   0.00  0.00  0.00  0.99  0.01  0.00  0.00  0.74  0.00
  WS02003066WSF200        1.00   0.12  0.00  0.00  0.00  0.88  0.00  0.00  0.84  0.00
  WS02003067WS02003066    1.00   0.10  0.02  0.00  0.88  0.00  0.00  0.00  0.00  0.00
  WS02003069WS02003072    1.00   0.00  0.00  0.00  0.99  0.01  0.00  0.00  0.80  0.00
  WS02003072WS02003073    1.00   0.00  0.00  0.00  0.00  0.00  0.00  1.00  0.00  0.00
  WS02004401WS02004402    1.00   0.02  0.00  0.00  0.98  0.00  0.00  0.00  0.00  0.00
  WS02004402WS02004403    1.00   0.02  0.00  0.00  0.97  0.00  0.00  0.00  0.00  0.00
  WS02004403WS02004404    1.00   0.00  0.03  0.00  0.97  0.00  0.00  0.00  0.00  0.00
  WS02004404WS02004405    1.00   0.00  0.00  0.00  1.00  0.00  0.00  0.00  0.01  0.00
  WS02004405WS02004406    1.00   0.00  0.00  0.00  1.00  0.00  0.00  0.00  0.00  0.00
  WS02004406WS02004407    1.00   0.00  0.05  0.00  0.95  0.00  0.00  0.00  0.00  0.00
  WS02004407WS02004409    1.00   0.05  0.00  0.00  0.94  0.01  0.00  0.00  0.95  0.00
  WS02004409WS02004410    1.00   0.05  0.00  0.00  0.95  0.00  0.00  0.00  0.03  0.00
  WS02004410WS02004411    1.00   0.05  0.00  0.00  0.95  0.00  0.00  0.00  0.01  0.00
  WS02004411WS02004412    1.00   0.05  0.00  0.00  0.95  0.00  0.00  0.00  0.00  0.00
  WS02004412WS02004413    1.00   0.05  0.00  0.00  0.94  0.00  0.00  0.00  0.01  0.00
  WS02004413WS02003067    1.00   0.06  0.04  0.00  0.00  0.00  0.90  0.00  0.00  0.00
  WS02006109WS02006110    1.00   0.00  0.01  0.00  0.98  0.00  0.01  0.00  0.00  0.00
  WS02006110WS02006113    1.00   0.01  0.01  0.00  0.98  0.00  0.00  0.00  0.00  0.00
  WS02006111WS02006112    1.00   0.02  0.00  0.00  0.98  0.00  0.00  0.00  0.98  0.00
  WS02006112WS02006115    1.00   0.02  0.00  0.00  0.97  0.00  0.00  0.00  0.00  0.00
  WS02006113WS02006111    1.00   0.02  0.00  0.00  0.00  0.98  0.00  0.00  0.10  0.00
  WS02006115WS02006116    1.00   0.02  0.00  0.00  0.97  0.00  0.00  0.01  0.00  0.00
  WS02006116WS02004401    1.00   0.02  0.00  0.00  0.98  0.00  0.00  0.00  0.00  0.00
  WS02006228WS02006109    1.00   0.00  0.00  0.00  1.00  0.00  0.00  0.00  0.00  0.00
  WS02006229WS02006228    1.00   0.00  0.00  0.00  0.99  0.00  0.00  0.01  0.00  0.00
  WS02006230WS02006229    1.00   0.00  0.00  0.00  0.99  0.00  0.00  0.01  0.01  0.00
  WS02006231WS02006230    1.00   0.00  0.00  0.00  0.20  0.00  0.80  0.00  0.00  0.00
  WS02006232WS02006231    1.00   0.00  0.00  0.00  0.99  0.00  0.00  0.00  0.00  0.00
  WS02006234WS02006232    1.00   0.00  0.00  0.00  1.00  0.00  0.00  0.00  0.22  0.00
  WS02006235WS02006234    1.00   0.00  0.00  0.00  0.59  0.00  0.41  0.00  0.00  0.00
  WS02006238WS02006235    1.00   0.00  0.00  0.00  1.00  0.00  0.00  0.00  0.00  0.00
  WS02006239WS02006238    1.00   0.00  0.00  0.00  1.00  0.00  0.00  0.00  0.34  0.00
  WS02006240WS02006239    1.00   0.00  0.00  0.00  0.41  0.00  0.00  0.58  0.01  0.00
  WS02006242WS02006240    1.00   0.00  0.00  0.00  0.99  0.00  0.00  0.00  0.00  0.00
  WS02006243WS02006242    1.00   0.00  0.00  0.00  0.99  0.00  0.00  0.00  0.65  0.00
  WS02006245WS02006243    1.00   0.00  0.00  0.00  0.71  0.00  0.00  0.29  0.01  0.00
  WS02006247WS02006245    1.00   0.00  0.00  0.00  0.98  0.00  0.00  0.02  0.00  0.00
  WS02006248WS02006247    1.00   0.00  0.00  0.00  0.99  0.00  0.00  0.01  0.56  0.00
  WS02006249WS02006248    1.00   0.00  0.00  0.00  0.35  0.00  0.65  0.00  0.00  0.00
  WS02006251WS02006249    1.00   0.00  0.00  0.00  1.00  0.00  0.00  0.00  0.60  0.00
  WS02006252WS02006251    1.00   0.00  0.66  0.00  0.03  0.00  0.31  0.00  0.00  0.00
  WS02006256WS02006235    1.00   0.00  0.00  0.00  1.00  0.00  0.00  0.00  0.00  0.00
  WSF200WS02003060        1.00   0.00  0.12  0.00  0.52  0.36  0.00  0.00  0.63  0.00
  YS02001580YS02001583    1.00   0.24  0.52  0.00  0.24  0.00  0.00  0.00  0.61  0.00
  YS02001583YS02001586    1.00   0.39  0.32  0.00  0.29  0.00  0.00  0.00  0.62  0.00
  YS02001586YS02001590    1.00   0.13  0.00  0.00  0.48  0.04  0.00  0.36  0.37  0.00
  YS02001590YS02001593    1.00   0.13  0.01  0.00  0.16  0.00  0.71  0.00  0.00  0.00
  YS02001593YS02001596    1.00   0.13  0.00  0.00  0.18  0.01  0.00  0.68  0.02  0.00
  YS02001596YS02001600    1.00   0.13  0.00  0.00  0.24  0.01  0.00  0.61  0.04  0.00
  YS02001600YS02001601    1.00   0.13  0.01  0.00  0.86  0.00  0.00  0.00  0.57  0.00
  YS02001601YS02001602    1.00   0.13  0.01  0.00  0.87  0.00  0.00  0.00  0.00  0.00
  YS02001602YS02001605    1.00   0.13  0.00  0.00  0.87  0.00  0.00  0.00  0.00  0.00
  YS02001605YS02001607    1.00   0.13  0.00  0.00  0.87  0.00  0.00  0.00  0.00  0.00
  YS02001607YS02001610    1.00   0.13  0.00  0.00  0.86  0.00  0.00  0.00  0.01  0.00
  YS02001610YS02001613    1.00   0.13  0.00  0.00  0.87  0.00  0.00  0.00  0.00  0.00
  YS02001613YS02001616    1.00   0.13  0.00  0.00  0.87  0.00  0.00  0.00  0.00  0.00
  YS02001616YS02001619    1.00   0.13  0.00  0.00  0.87  0.00  0.00  0.00  0.00  0.00
  YS02001619YS02001622    1.00   0.13  0.00  0.00  0.87  0.00  0.00  0.00  0.26  0.00
  YS02001622YS02001625    1.00   0.13  0.00  0.00  0.87  0.00  0.00  0.00  0.03  0.00
  YS02001625YS02001629    1.00   0.13  0.04  0.00  0.21  0.00  0.62  0.00  0.00  0.00
  YS02001629YS02163301    1.00   0.14  0.01  0.00  0.85  0.00  0.00  0.00  0.00  0.00
  YS02001633YS02163601    1.00   0.00  0.01  0.00  0.99  0.00  0.00  0.00  0.14  0.00
  YS02001641YS02001644    1.00   0.00  0.01  0.00  0.99  0.00  0.00  0.00  0.00  0.00
  YS02001644YS02001647    1.00   0.00  0.16  0.00  0.84  0.00  0.00  0.00  0.00  0.00
  YS02001647YS02001649    1.00   0.00  0.16  0.00  0.55  0.29  0.00  0.00  0.54  0.00
  YS02001649YS02001757    1.00   0.00  0.00  0.00  0.68  0.32  0.00  0.00  0.41  0.00
  YS02001652YS02001649    1.00   0.00  0.00  0.00  0.97  0.03  0.00  0.00  0.70  0.00
  YS02001655YS02001652    1.00   0.00  0.00  0.00  0.23  0.01  0.00  0.76  0.06  0.00
  YS02001658YS02001655    1.00   0.00  0.14  0.00  0.68  0.18  0.00  0.00  0.65  0.00
  YS02001661YS02001658    1.00   0.14  0.00  0.00  0.52  0.34  0.00  0.00  0.65  0.00
  YS02001664YS02001661    1.00   0.13  0.00  0.00  0.76  0.12  0.00  0.00  0.84  0.00
  YS02001745YS02001748    1.00   0.00  0.00  0.00  0.13  0.00  0.00  0.87  0.04  0.00
  YS02001748YS02001751    1.00   0.00  0.00  0.00  0.84  0.16  0.00  0.00  0.72  0.00
  YS02001751YS02001754    1.00   0.00  0.00  0.00  0.20  0.01  0.00  0.79  0.04  0.00
  YS02001754YS02001757    1.00   0.00  0.00  0.00  1.00  0.00  0.00  0.00  0.78  0.00
  YS02001757CaochengTiaoxuchi    1.00   0.00  0.00  0.00  0.92  0.08  0.00  0.00  0.73  0.00
  YS02001759YS02001757    1.00   0.00  0.00  0.00  0.98  0.02  0.00  0.00  0.57  0.00
  YS02001762YS02001759    1.00   0.00  0.00  0.00  1.00  0.00  0.00  0.00  0.04  0.00
  YS02001765YS02001762    1.00   0.00  0.00  0.00  1.00  0.00  0.00  0.00  0.67  0.00
  YS02001767YS02001765    1.00   0.00  0.00  0.00  1.00  0.00  0.00  0.00  0.00  0.00
  YS02001770YS02001767    1.00   0.00  0.00  0.00  1.00  0.00  0.00  0.00  0.00  0.00
  YS02001774YS02001770    1.00   0.00  0.13  0.00  0.71  0.00  0.15  0.00  0.02  0.00
  YS02001779YS02001774    1.00   0.00  0.00  0.00  1.00  0.00  0.00  0.00  0.72  0.00
  YS02001783YS02001784    1.00   0.00  0.16  0.00  0.84  0.00  0.00  0.00  0.54  0.00
  YS02001784YS02001785    1.00   0.00  0.00  0.00  1.00  0.00  0.00  0.00  0.15  0.00
  YS02001786YS02001788    1.00   0.00  0.00  0.00  0.79  0.21  0.00  0.00  0.00  0.00
  YS02001788YS02001790    1.00   0.00  0.00  0.00  0.20  0.80  0.00  0.00  0.77  0.00
  YS02001790YS02001791    1.00   0.00  0.00  0.00  0.01  0.99  0.00  0.00  0.15  0.00
  YS02001791YS02001793    1.00   0.00  0.00  0.00  0.00  1.00  0.00  0.00  0.01  0.00
  YS02001793JiankangQianchi    1.00   0.00  0.00  0.00  0.97  0.02  0.00  0.00  0.92  0.00
  YS02001882YS02001884    1.00   0.14  0.01  0.00  0.85  0.00  0.00  0.00  0.00  0.00
  YS02001884YS02001887    1.00   0.06  0.05  0.00  0.89  0.00  0.00  0.00  0.00  0.00
  YS02001887YS02001890    1.00   0.00  0.00  0.00  0.97  0.00  0.03  0.00  0.00  0.00
  YS02001890YS02001895    1.00   0.00  0.15  0.00  0.85  0.00  0.00  0.00  0.00  0.00
  YS02001895YS02001898    1.00   0.15  0.00  0.00  0.83  0.00  0.01  0.00  0.00  0.00
  YS02001898YS02001901    1.00   0.15  0.00  0.00  0.85  0.00  0.00  0.00  0.01  0.00
  YS02001901YS02001904    1.00   0.15  0.00  0.00  0.85  0.00  0.00  0.00  0.00  0.00
  YS02001904YS02001907    1.00   0.00  0.15  0.00  0.85  0.00  0.00  0.00  0.00  0.00
  YS02001907YS02006553    1.00   0.00  0.02  0.00  0.98  0.00  0.00  0.00  0.00  0.00
  YS02001910YS02001907    1.00   0.00  0.00  0.00  0.97  0.00  0.00  0.03  0.11  0.00
  YS02001915YS02001910    1.00   0.00  0.00  0.00  0.97  0.03  0.00  0.00  0.13  0.00
  YS02001918YS02001915    1.00   0.00  0.01  0.00  0.98  0.02  0.00  0.00  0.70  0.00
  YS02001920YS02001918    1.00   0.00  0.01  0.00  0.99  0.00  0.00  0.00  0.00  0.00
  YS02001923YS02001920    1.00   0.00  0.00  0.00  1.00  0.00  0.00  0.00  0.89  0.00
  YS02001926YS02001923    1.00   0.00  0.07  0.00  0.09  0.00  0.83  0.00  0.00  0.00
  YS02001929YS02001926    1.00   0.00  0.13  0.00  0.87  0.00  0.00  0.00  0.79  0.00
  YS02006553YS02006556    1.00   0.01  0.00  0.00  0.99  0.00  0.00  0.00  0.03  0.00
  YS02006556YS02006558    1.00   0.00  0.00  0.00  1.00  0.00  0.00  0.00  0.00  0.00
  YS02006558YS02006561    1.00   0.16  0.00  0.00  0.08  0.75  0.00  0.00  0.16  0.00
  YS02006561YS02001783    1.00   0.16  0.00  0.00  0.13  0.70  0.00  0.00  0.65  0.00
  YS02163301YS02001633    1.00   0.00  0.14  0.00  0.86  0.00  0.00  0.00  0.00  0.00
  YS02163601YS02164001    1.00   0.00  0.08  0.00  0.92  0.00  0.00  0.00  0.00  0.00
  YS02164001YS02001641    1.00   0.01  0.07  0.00  0.92  0.00  0.00  0.00  0.05  0.00
  
  
  *************************
  Conduit Surcharge Summary
  *************************
  
  ----------------------------------------------------------------------------
                                                           Hours        Hours 
                         --------- Hours Full --------   Above Full   Capacity
  Conduit                Both Ends  Upstream  Dnstream   Normal Flow   Limited
  ----------------------------------------------------------------------------
  WS02003072WS02003073        0.01      0.01      0.01      0.43         0.01
  WS02004404WS02004405        0.01      0.01      0.01      2.40         0.01
  WS02004405WS02004406        0.01      0.01      0.01      0.10         0.01
  WS02006109WS02006110        0.15      0.15      1.47      0.20         0.01
  WS02006110WS02006113        0.01      0.01      1.45      0.01         0.01
  WS02006111WS02006112        0.01      0.01      1.73      0.01         0.01
  WS02006112WS02006115        0.01      0.01      0.18      0.01         0.01
  WS02006228WS02006109        1.44      1.47      1.44      1.91         1.44
  WS02006229WS02006228        1.43      1.44      1.43      1.67         1.43
  WS02006230WS02006229        1.54      1.63      1.54      2.87         1.54
  WS02006231WS02006230        0.16      0.16      0.23      2.66         0.01
  WS02006232WS02006231        0.21      0.21      1.47      0.24         0.01
  WS02006234WS02006232        1.40      1.40      1.47      0.24         0.23
  WS02006235WS02006234        0.35      0.35      1.41      2.46         0.01
  WS02006238WS02006235        1.42      1.42      1.47      0.01         0.01
  WS02006239WS02006238        1.44      1.44      1.44      1.53         1.36
  WS02006240WS02006239        1.42      1.43      1.42      1.53         1.33
  WS02006242WS02006240        1.43      1.43      1.50      1.62         0.01
  WS02006243WS02006242        1.43      1.43      1.47      0.01         0.02
  WS02006245WS02006243        1.43      1.43      1.43      1.37         1.25
  WS02006247WS02006245        1.42      1.44      1.42      2.34         1.42
  WS02006248WS02006247        1.42      1.42      1.43      0.01         0.03
  WS02006249WS02006248        1.42      1.42      1.43      2.26         0.01
  WS02006251WS02006249        1.42      1.43      1.43      1.56         1.38
  WS02006252WS02006251        1.59      1.59      1.65      1.59         0.01
  WS02006256WS02006235        2.51      2.54      5.60      0.41         0.01
  YS02001580YS02001583        0.95      0.95      1.01      0.01         0.01
  YS02001583YS02001586        0.96      0.96      1.08      0.01         0.01
  YS02001586YS02001590        1.08      1.08      1.16      0.01         0.01
  YS02001590YS02001593        1.16      1.16      1.18      1.15         0.01
  YS02001593YS02001596        1.16      1.16      1.29      0.01         0.01
  YS02001596YS02001600        1.35      1.35      1.46      0.01         0.01
  YS02001600YS02001601        1.52      1.52      1.81      0.01         0.01
  YS02001601YS02001602        1.70      1.70      1.85      1.47         0.01
  YS02001602YS02001605        1.65      1.65      1.70      2.62         0.01
  YS02001605YS02001607        1.60      1.65      1.60      1.76         1.60
  YS02001607YS02001610        1.13      1.13      1.15      0.01         0.01
  YS02001610YS02001613        1.12      1.12      1.15      0.01         0.01
  YS02001613YS02001616        1.08      1.08      1.12      0.01         0.01
  YS02001616YS02001619        1.07      1.07      1.08      0.16         0.13
  YS02001619YS02001622        1.07      1.07      1.07      1.17         1.02
  YS02001622YS02001625        1.07      1.07      1.25      0.01         0.01
  YS02001625YS02001629        0.99      0.99      1.25      0.01         0.01
  YS02001629YS02163301        1.25      1.25      1.26      0.29         0.28
  YS02001633YS02163601        1.28      1.28      1.32      0.50         0.47
  YS02001641YS02001644        1.16      1.20      1.16      1.87         1.15
  YS02001644YS02001647        0.90      0.90      1.16      0.02         0.01
  YS02001647YS02001649        0.90      0.90      0.99      0.01         0.01
  YS02001649YS02001757        0.98      0.99      1.04      0.25         0.14
  YS02001652YS02001649        0.85      0.85      0.99      0.01         0.01
  YS02001655YS02001652        0.63      0.63      0.82      0.01         0.01
  YS02001658YS02001655        0.37      0.37      0.63      0.01         0.01
  YS02001661YS02001658        0.16      0.16      0.37      0.01         0.01
  YS02001664YS02001661        0.01      0.01      0.20      0.01         0.01
  YS02001745YS02001748        0.01      0.01      0.30      0.01         0.01
  YS02001748YS02001751        0.35      0.35      0.47      0.01         0.01
  YS02001751YS02001754        0.47      0.47      0.72      0.01         0.01
  YS02001754YS02001757        0.76      0.76      1.04      0.01         0.01
  YS02001757CaochengTiaoxuchi        0.93      1.04      1.44      0.62         0.43
  YS02001759YS02001757        0.96      0.96      1.04      0.04         0.05
  YS02001762YS02001759        0.93      0.93      0.96      0.01         0.01
  YS02001765YS02001762        0.89      0.89      0.93      0.01         0.01
  YS02001767YS02001765        0.88      0.88      0.89      0.01         0.02
  YS02001770YS02001767        0.88      0.88      0.88      0.82         0.60
  YS02001774YS02001770        0.85      0.85      0.92      0.01         0.01
  YS02001779YS02001774        0.70      0.70      0.92      0.01         0.01
  YS02001783YS02001784        0.77      0.80      0.77      1.02         0.77
  YS02001784YS02001785        0.63      0.77      0.63      1.34         0.63
  YS02001786YS02001788        0.01      0.63      0.01      1.20         0.01
  YS02001790YS02001791        0.01      0.01      0.01      0.75         0.01
  YS02001793JiankangQianchi        0.01      0.01      7.22      0.01         0.01
  YS02001882YS02001884        0.73      0.73      0.74      0.01         0.01
  YS02001884YS02001887        0.77      0.77      0.78      0.01         0.01
  YS02001887YS02001890        0.80      0.80      0.82      0.23         0.01
  YS02001890YS02001895        0.71      0.71      0.84      0.01         0.01
  YS02001895YS02001898        0.70      0.70      0.71      0.01         0.01
  YS02001898YS02001901        0.71      0.71      0.77      0.01         0.01
  YS02001901YS02001904        0.75      0.75      0.77      0.01         0.01
  YS02001904YS02001907        0.75      0.75      1.16      0.01         0.01
  YS02001907YS02006553        1.35      1.35      1.42      0.01         0.01
  YS02001910YS02001907        0.84      0.84      1.14      0.11         0.11
  YS02001915YS02001910        0.72      0.72      0.84      0.01         0.01
  YS02001918YS02001915        0.62      0.62      0.72      0.01         0.01
  YS02001920YS02001918        0.62      0.62      0.63      0.01         0.01
  YS02001923YS02001920        0.56      0.56      0.63      0.01         0.01
  YS02001926YS02001923        0.24      0.24      0.28      0.05         0.01
  YS02001929YS02001926        0.12      0.12      0.28      0.01         0.01
  YS02006553YS02006556        0.97      0.97      1.17      0.01         0.01
  YS02006556YS02006558        1.07      1.07      1.19      0.01         0.01
  YS02006558YS02006561        0.65      0.94      0.65      1.29         0.65
  YS02006561YS02001783        0.57      0.57      0.80      0.01         0.01
  YS02163301YS02001633        1.26      1.26      1.30      0.01         0.01
  YS02163601YS02164001        1.21      1.21      1.32      0.19         0.01
  YS02164001YS02001641        1.20      1.21      1.20      0.89         0.80
  
  
  ***************
  Pumping Summary
  ***************
  
  ---------------------------------------------------------------------------------------------------------
                                                  Min       Avg       Max     Total     Power    % Time Off
                        Percent   Number of      Flow      Flow      Flow    Volume     Usage    Pump Curve
  Pump                 Utilized   Start-Ups       LPS       LPS       LPS  10^6 ltr     Kw-hr    Low   High
  ---------------------------------------------------------------------------------------------------------
  CC-R1                   29.47          44      0.00    683.00    683.00     5.797    104.89    0.0   42.5
  CC-R2                   31.34          39      0.00    683.00    683.00     6.165    111.05    0.0   46.0
  CC-S1                   30.09          39      0.00    200.00    200.00     1.733      9.92    0.0    0.0
  CC-S2                   20.88           5      0.00    200.00    200.00     1.203      6.42    0.0    0.0
  JK-R1                    0.45           4      0.00   1000.00   1000.00     0.130      1.32    0.0    0.0
  JK-R2                   17.08          49      0.00   1000.00   1000.00     4.919     49.61    0.0    0.0
  JK-S                     5.01          12      0.00    300.00    300.00     0.433      5.93    0.0    0.0
  

  Analysis begun on:  Mon Feb 24 09:44:31 2025
  Analysis ended on:  Mon Feb 24 09:44:33 2025
  Total elapsed time: 00:00:02