
  EPA STORM WATER MANAGEMENT MODEL - VERSION 5.2 (Build 5.2.4)
  PYSWMM TOOLKIT API - VERSION v1.0 (2023-11-27)
  ------------------------------------------------------------

  WARNING 04: minimum elevation drop used for Conduit WS02004404WS02004405
  WARNING 03: negative offset ignored for Link YS02001904YS02001907
  
  ****************
  Analysis Options
  ****************
  Flow Units ............... LPS
  Process Models:
    Rainfall/Runoff ........ YES
    RDII ................... NO
    Snowmelt ............... NO
    Groundwater ............ NO
    Flow Routing ........... YES
    Ponding Allowed ........ NO
    Water Quality .......... NO
  Infiltration Method ...... HORTON
  Flow Routing Method ...... DYNWAVE
  Surcharge Method ......... EXTRAN
  Starting Date ............ 08/28/2015 08:00:00
  Ending Date .............. 08/28/2015 16:00:00
  Antecedent Dry Days ...... 8.0
  Report Time Step ......... 00:01:00
  Wet Time Step ............ 00:01:00
  Dry Time Step ............ 00:01:00
  Routing Time Step ........ 30.00 sec
  Variable Time Step ....... YES
  Maximum Trials ........... 8
  Number of Threads ........ 4
  Head Tolerance ........... 0.001500 m
  
  
  **************************        Volume         Depth
  Runoff Quantity Continuity     hectare-m            mm
  **************************     ---------       -------
  Total Precipitation ......         1.548        46.668
  Evaporation Loss .........         0.000         0.000
  Infiltration Loss ........         0.095         2.858
  Surface Runoff ...........         1.421        42.828
  Final Storage ............         0.033         0.993
  Continuity Error (%) .....        -0.024
  
  
  **************************        Volume        Volume
  Flow Routing Continuity        hectare-m      10^6 ltr
  **************************     ---------     ---------
  Dry Weather Inflow .......         0.025         0.251
  Wet Weather Inflow .......         1.421        14.206
  Groundwater Inflow .......         0.000         0.000
  RDII Inflow ..............         0.000         0.000
  External Inflow ..........         0.083         0.834
  External Outflow .........         1.348        13.484
  Flooding Loss ............         0.250         2.500
  Evaporation Loss .........         0.000         0.000
  Exfiltration Loss ........         0.000         0.000
  Initial Stored Volume ....         0.243         2.431
  Final Stored Volume ......         0.181         1.808
  Continuity Error (%) .....        -0.404
  
  
  *************************
  Highest Continuity Errors
  *************************
  Node YS02001583 (-5.66%)
  Node YS02001884 (4.89%)
  Node WS02006256 (-3.43%)
  Node YS02001774 (1.54%)
  Node WS02006252 (-1.09%)
  
  
  ***************************
  Time-Step Critical Elements
  ***************************
  Link WS02006252WS02006251 (39.35%)
  Link WS02004404WS02004405 (24.71%)
  Link WS02006238WS02006235 (15.52%)
  Link WS02003066WSF200 (4.61%)
  Link YS02001791YS02001793 (3.81%)
  
  
  ********************************
  Highest Flow Instability Indexes
  ********************************
  Link WS02006113WS02006111 (27)
  Link WS02006256WS02006235 (12)
  Link WS02006111WS02006112 (9)
  Link YS02001790YS02001791 (8)
  Link WS02006252WS02006251 (7)
  
  
  *********************************
  Most Frequent Nonconverging Nodes
  *********************************
  Node CC-1 (9.59%)
  Node CC-2 (9.59%)
  Node JK-1 (9.59%)
  Node JK-2 (9.59%)
  Node WSC (9.59%)
  
  
  *************************
  Routing Time Step Summary
  *************************
  Minimum Time Step           :     0.00 sec
  Average Time Step           :     2.72 sec
  Maximum Time Step           :     6.43 sec
  % of Time in Steady State   :     0.00
  Average Iterations per Step :     2.93
  % of Steps Not Converging   :     9.59
  Time Step Frequencies       :
     30.000 - 13.228 sec      :     0.00 %
     13.228 -  5.833 sec      :    21.17 %
      5.833 -  2.572 sec      :    20.95 %
      2.572 -  1.134 sec      :    13.61 %
      1.134 -  0.500 sec      :    44.27 %
  
  
  ***************************
  Subcatchment Runoff Summary
  ***************************
  
  ------------------------------------------------------------------------------------------------------------------------------
                            Total      Total      Total      Total     Imperv       Perv      Total       Total     Peak  Runoff
                           Precip      Runon       Evap      Infil     Runoff     Runoff     Runoff      Runoff   Runoff   Coeff
  Subcatchment                 mm         mm         mm         mm         mm         mm         mm    10^6 ltr      LPS
  ------------------------------------------------------------------------------------------------------------------------------
  sub60                     46.67       0.00       0.00       1.71      39.86       3.89      43.75        0.57   434.94   0.938
  sub61                     46.67       0.00       0.00       2.49      37.60       5.45      43.05        0.79   602.65   0.922
  sub62                     46.67       0.00       0.00       1.14      41.65       2.59      44.24        1.21   841.75   0.948
  sub63                     46.67       0.00       0.00       4.62      32.16       8.92      41.08        0.93   664.26   0.880
  sub64                     46.67       0.00       0.00       2.33      38.46       4.67      43.13        1.04   678.53   0.924
  sub65                     46.67       0.00       0.00       2.02      39.35       4.05      43.40        1.19   754.99   0.930
  sub66                     46.67       0.00       0.00       5.72      32.06       7.82      39.88        1.86   959.56   0.855
  sub67                     46.67       0.00       0.00       1.10      41.69       2.64      44.32        0.82   664.80   0.950
  sub68                     46.67       0.00       0.00       2.06      38.95       4.47      43.42        1.19   862.34   0.930
  sub69                     46.67       0.00       0.00       1.82      39.56       5.18      44.74        1.66  1005.88   0.959
  sub70                     46.67       0.00       0.00       6.09      30.64       9.78      40.41        1.17   537.54   0.866
  sub71                     46.67       0.00       0.00       1.17      41.61       2.56      44.17        1.16   734.68   0.946
  sub72                     46.67       0.00       0.00       1.05      42.00       2.22      44.22        0.61   350.03   0.948
  
  
  ******************
  Node Depth Summary
  ******************
  
  ---------------------------------------------------------------------------------
                                 Average  Maximum  Maximum  Time of Max    Reported
                                   Depth    Depth      HGL   Occurrence   Max Depth
  Node                 Type       Meters   Meters   Meters  days hr:min      Meters
  ---------------------------------------------------------------------------------
  WS02003060           JUNCTION     0.16     0.37     5.31     0  02:58        0.37
  WS02003066           JUNCTION     0.15     0.29     5.85     0  02:58        0.29
  WS02003067           JUNCTION     0.41     0.69     6.01     0  02:58        0.69
  WS02003069           JUNCTION     0.18     0.42     5.00     0  02:59        0.42
  WS02003072           JUNCTION     0.24     0.49     4.86     0  03:00        0.49
  WS02003073           JUNCTION     0.13     0.29     4.35     0  03:01        0.29
  WS02004401           JUNCTION     0.48     0.84     6.84     0  02:55        0.84
  WS02004402           JUNCTION     0.51     0.87     6.83     0  02:55        0.87
  WS02004403           JUNCTION     0.54     0.89     6.82     0  02:55        0.88
  WS02004404           JUNCTION     0.61     0.96     6.81     0  02:55        0.96
  WS02004405           JUNCTION     0.61     0.95     6.80     0  02:55        0.95
  WS02004406           JUNCTION     0.63     0.95     6.78     0  02:56        0.95
  WS02004407           JUNCTION     0.12     0.29     6.61     0  02:56        0.29
  WS02004409           JUNCTION     0.26     0.64     6.41     0  02:57        0.64
  WS02004410           JUNCTION     0.29     0.66     6.38     0  02:57        0.66
  WS02004411           JUNCTION     0.32     0.67     6.35     0  02:57        0.67
  WS02004412           JUNCTION     0.35     0.68     6.32     0  02:58        0.68
  WS02004413           JUNCTION     0.51     0.84     6.31     0  02:58        0.84
  WS02006109           JUNCTION     0.52     1.14     7.76     0  02:54        0.97
  WS02006110           JUNCTION     0.54     1.08     7.67     0  02:51        0.92
  WS02006111           JUNCTION     0.13     0.29     7.00     0  02:54        0.29
  WS02006112           JUNCTION     0.62     1.06     6.94     0  02:54        1.02
  WS02006113           JUNCTION     0.19     0.47     7.36     0  02:54        0.46
  WS02006115           JUNCTION     0.35     0.74     6.88     0  02:55        0.74
  WS02006116           JUNCTION     0.44     0.82     6.86     0  02:55        0.82
  WS02006228           JUNCTION     0.50     1.22     7.87     0  02:54        1.01
  WS02006229           JUNCTION     0.47     1.25     7.95     0  02:54        1.06
  WS02006230           JUNCTION     0.44     1.39     8.14     0  02:54        1.14
  WS02006231           JUNCTION     0.28     1.16     8.28     0  02:54        0.90
  WS02006232           JUNCTION     0.40     1.45     8.49     0  02:54        1.43
  WS02006234           JUNCTION     0.30     1.92     9.08     0  02:54        1.92
  WS02006235           JUNCTION     0.33     2.00     9.16     0  02:54        2.00
  WS02006238           JUNCTION     0.36     2.15     9.29     0  02:54        2.15
  WS02006239           JUNCTION     0.32     2.03     9.24     0  02:54        2.03
  WS02006240           JUNCTION     0.30     2.10     9.39     0  02:54        2.10
  WS02006242           JUNCTION     0.36     1.55     8.82     0  02:54        1.55
  WS02006243           JUNCTION     0.28     1.48     8.90     0  02:54        1.48
  WS02006245           JUNCTION     0.29     1.56     9.04     0  02:54        1.56
  WS02006247           JUNCTION     0.31     1.47     8.97     0  02:54        1.47
  WS02006248           JUNCTION     0.27     1.10     8.69     0  02:54        1.10
  WS02006249           JUNCTION     0.31     1.09     8.69     0  02:50        1.09
  WS02006251           JUNCTION     0.30     1.23     8.90     0  02:50        1.13
  WS02006252           JUNCTION     0.25     1.50     9.74     0  00:00        0.69
  WS02006256           JUNCTION     0.59     2.35     9.28     0  00:00        2.35
  WSF200               JUNCTION     0.11     0.28     5.52     0  02:58        0.28
  YS02001580           JUNCTION     0.14     1.05     9.59     0  02:08        0.77
  YS02001583           JUNCTION     0.17     1.14     9.64     0  02:08        0.82
  YS02001586           JUNCTION     0.29     1.13     9.30     0  02:08        1.13
  YS02001590           JUNCTION     0.40     1.40     9.26     0  02:05        1.37
  YS02001593           JUNCTION     0.33     1.33     9.19     0  02:08        1.28
  YS02001596           JUNCTION     0.45     1.69     9.10     0  02:08        1.65
  YS02001600           JUNCTION     0.55     1.87     9.00     0  02:06        1.86
  YS02001601           JUNCTION     0.75     2.06     8.90     0  02:06        2.06
  YS02001602           JUNCTION     0.65     1.87     8.77     0  02:07        1.87
  YS02001605           JUNCTION     0.60     1.78     8.68     0  02:06        1.78
  YS02001607           JUNCTION     0.56     1.68     8.53     0  02:07        1.64
  YS02001610           JUNCTION     0.60     1.68     8.48     0  02:07        1.68
  YS02001613           JUNCTION     0.56     1.69     8.53     0  02:07        1.66
  YS02001616           JUNCTION     0.49     1.61     8.52     0  02:07        1.61
  YS02001619           JUNCTION     0.47     1.61     8.54     0  02:07        1.58
  YS02001622           JUNCTION     0.45     1.62     8.52     0  02:07        1.55
  YS02001625           JUNCTION     0.71     1.78     8.38     0  02:07        1.78
  YS02001629           JUNCTION     0.60     1.85     8.40     0  02:07        1.85
  YS02001633           JUNCTION     0.67     2.03     8.49     0  02:11        1.98
  YS02001641           JUNCTION     0.63     1.96     8.40     0  02:12        1.94
  YS02001644           JUNCTION     0.62     1.92     8.35     0  02:12        1.92
  YS02001647           JUNCTION     0.38     1.82     8.43     0  02:12        1.70
  YS02001649           JUNCTION     0.42     2.05     8.44     0  02:12        1.87
  YS02001652           JUNCTION     0.29     2.16     8.76     0  02:12        1.71
  YS02001655           JUNCTION     0.21     2.20     9.05     0  02:12        1.50
  YS02001658           JUNCTION     0.16     2.30     9.44     0  02:12        1.26
  YS02001661           JUNCTION     0.18     1.93     9.33     0  02:13        1.06
  YS02001664           JUNCTION     0.08     0.61     8.53     0  02:13        0.43
  YS02001745           JUNCTION     0.08     0.87     8.38     0  02:13        0.81
  YS02001748           JUNCTION     0.14     2.27     9.35     0  02:12        1.16
  YS02001751           JUNCTION     0.17     2.20     9.08     0  02:12        1.32
  YS02001754           JUNCTION     0.23     2.20     8.81     0  02:12        1.54
  YS02001757           JUNCTION     0.41     2.18     8.44     0  02:12        1.86
  YS02001759           JUNCTION     0.35     2.18     8.54     0  02:12        1.85
  YS02001762           JUNCTION     0.34     2.15     8.55     0  02:12        1.85
  YS02001765           JUNCTION     0.32     2.10     8.55     0  02:12        1.82
  YS02001767           JUNCTION     0.32     2.03     8.52     0  02:11        1.82
  YS02001770           JUNCTION     0.34     1.95     8.44     0  02:11        1.87
  YS02001774           JUNCTION     0.40     2.01     8.44     0  02:12        1.94
  YS02001779           JUNCTION     0.22     1.68     8.37     0  02:11        1.68
  YS02001783           JUNCTION     0.35     1.63     7.77     0  02:10        1.23
  YS02001784           JUNCTION     0.35     1.33     7.40     0  02:10        1.11
  YS02001786           JUNCTION     0.29     1.14     7.17     0  02:10        0.86
  YS02001788           JUNCTION     0.21     0.62     6.60     0  02:13        0.61
  YS02001790           JUNCTION     0.25     0.71     6.36     0  02:13        0.69
  YS02001791           JUNCTION     0.16     0.44     5.91     0  02:13        0.43
  YS02001793           JUNCTION     0.08     0.24     5.07     0  02:24        0.22
  YS02001882           JUNCTION     0.43     1.83     8.55     0  02:09        1.63
  YS02001884           JUNCTION     0.52     1.92     8.54     0  02:09        1.73
  YS02001887           JUNCTION     0.60     1.92     8.46     0  02:09        1.81
  YS02001890           JUNCTION     0.63     1.81     8.32     0  02:09        1.81
  YS02001895           JUNCTION     0.40     1.70     8.45     0  02:09        1.56
  YS02001898           JUNCTION     0.41     1.77     8.51     0  02:09        1.56
  YS02001901           JUNCTION     0.52     1.82     8.43     0  02:09        1.67
  YS02001904           JUNCTION     0.50     1.66     8.29     0  02:09        1.64
  YS02001907           JUNCTION     0.81     1.96     8.25     0  02:10        1.96
  YS02001910           JUNCTION     0.62     2.10     8.61     0  02:09        1.83
  YS02001915           JUNCTION     0.43     2.00     8.72     0  02:09        1.68
  YS02001918           JUNCTION     0.26     1.81     8.88     0  02:10        1.37
  YS02001920           JUNCTION     0.34     2.14     9.15     0  02:11        1.44
  YS02001923           JUNCTION     0.20     2.03     9.29     0  02:11        1.20
  YS02001926           JUNCTION     0.23     1.90     9.35     0  02:11        1.02
  YS02001929           JUNCTION     0.14     1.78     9.47     0  02:11        0.77
  YS02006553           JUNCTION     0.81     2.08     8.37     0  02:10        1.97
  YS02006556           JUNCTION     0.78     2.19     8.50     0  02:10        1.95
  YS02006558           JUNCTION     0.83     2.26     8.53     0  02:10        1.99
  YS02006561           JUNCTION     0.22     1.49     8.15     0  02:10        0.89
  YS02163301           JUNCTION     0.62     1.93     8.45     0  02:11        1.90
  YS02163601           JUNCTION     0.70     2.05     8.45     0  02:12        2.01
  YS02164001           JUNCTION     0.62     1.97     8.43     0  02:12        1.93
  CC-1                 OUTFALL      0.00     0.00     0.00     0  00:00        0.00
  CC-2                 OUTFALL      0.00     0.00     0.00     0  00:00        0.00
  JK-1                 OUTFALL      0.00     0.00     0.00     0  00:00        0.00
  JK-2                 OUTFALL      0.00     0.00     0.00     0  00:00        0.00
  WSC                  OUTFALL      0.13     0.29     0.96     0  03:01        0.29
  CC-storage           STORAGE      0.63     1.14     6.64     0  02:37        1.14
  JK-storage           STORAGE      1.62     4.00     4.80     0  02:29        3.98
  
  
  *******************
  Node Inflow Summary
  *******************
  
  -------------------------------------------------------------------------------------------------
                                  Maximum  Maximum                  Lateral       Total        Flow
                                  Lateral    Total  Time of Max      Inflow      Inflow     Balance
                                   Inflow   Inflow   Occurrence      Volume      Volume       Error
  Node                 Type           LPS      LPS  days hr:min    10^6 ltr    10^6 ltr     Percent
  -------------------------------------------------------------------------------------------------
  WS02003060           JUNCTION     16.53   528.26     0  02:58       0.476        2.56       0.080
  WS02003066           JUNCTION      0.00   509.51     0  02:58           0        2.09       0.058
  WS02003067           JUNCTION      0.00   508.56     0  02:58           0        2.09       0.192
  WS02003069           JUNCTION      0.32   528.22     0  02:59     0.00922        2.57       0.135
  WS02003072           JUNCTION      0.00   525.80     0  02:59           0        2.57       0.247
  WS02003073           JUNCTION      1.82   526.11     0  03:00      0.0524        2.61       0.193
  WS02004401           JUNCTION      0.00   547.96     0  02:55           0        2.19       0.458
  WS02004402           JUNCTION      0.00   539.71     0  02:55           0        2.18       0.465
  WS02004403           JUNCTION      0.00   537.92     0  02:55           0        2.17       0.458
  WS02004404           JUNCTION      0.16   535.38     0  02:55     0.00467        2.17       0.391
  WS02004405           JUNCTION      0.04   534.27     0  02:55      0.0011        2.16       0.559
  WS02004406           JUNCTION      0.00   534.13     0  02:55           0        2.15       0.967
  WS02004407           JUNCTION      0.00   531.90     0  02:56           0        2.13       0.045
  WS02004409           JUNCTION      0.00   529.89     0  02:56           0        2.12       0.103
  WS02004410           JUNCTION      0.00   523.55     0  02:56           0        2.12       0.187
  WS02004411           JUNCTION      0.00   518.07     0  02:57           0        2.12       0.244
  WS02004412           JUNCTION      0.00   514.37     0  02:57           0        2.11       0.333
  WS02004413           JUNCTION      0.00   512.38     0  02:57           0        2.11       0.612
  WS02006109           JUNCTION      1.23   581.58     0  02:54      0.0354        2.24       0.455
  WS02006110           JUNCTION      0.00   584.72     0  02:54           0        2.23       0.295
  WS02006111           JUNCTION      0.00   590.71     0  02:54           0        2.22       0.045
  WS02006112           JUNCTION      0.00   568.01     0  02:54           0        2.22       0.902
  WS02006113           JUNCTION      0.00   597.56     0  02:54           0        2.22       0.062
  WS02006115           JUNCTION      0.00   570.61     0  02:54           0         2.2       0.291
  WS02006116           JUNCTION      0.00   548.24     0  02:54           0        2.19       0.189
  WS02006228           JUNCTION      0.00   576.98     0  02:54           0        2.21       0.198
  WS02006229           JUNCTION      0.00   578.91     0  02:54           0        2.21       0.193
  WS02006230           JUNCTION     10.28   584.77     0  02:54       0.296        2.22       0.269
  WS02006231           JUNCTION      0.00   577.87     0  02:54           0        1.92      -0.011
  WS02006232           JUNCTION      0.00   574.91     0  02:54           0        1.93       0.241
  WS02006234           JUNCTION      0.00   566.23     0  02:50           0        1.92      -0.260
  WS02006235           JUNCTION      0.00   559.29     0  02:50           0        1.94       0.270
  WS02006238           JUNCTION      0.00   423.26     0  02:55           0        1.85      -0.388
  WS02006239           JUNCTION      0.00   422.87     0  02:55           0        1.83      -0.393
  WS02006240           JUNCTION      0.00   420.18     0  02:55           0        1.82      -0.064
  WS02006242           JUNCTION      0.00   420.56     0  02:55           0        1.82      -0.037
  WS02006243           JUNCTION      0.00   419.99     0  02:55           0        1.81      -0.512
  WS02006245           JUNCTION      0.00   420.40     0  02:55           0        1.82       0.853
  WS02006247           JUNCTION      0.00   419.58     0  02:55           0        1.82      -0.017
  WS02006248           JUNCTION      0.00   420.06     0  02:55           0        1.82      -0.333
  WS02006249           JUNCTION      0.00   459.02     0  00:00           0        1.86       1.093
  WS02006251           JUNCTION      0.08   403.65     0  02:50     0.00222        1.86       0.040
  WS02006252           JUNCTION      0.00   400.00     0  00:00           0        1.83      -1.075
  WS02006256           JUNCTION      0.00   300.00     0  00:00           0       0.137      -3.321
  WSF200               JUNCTION      0.00   509.98     0  02:58           0        2.09       0.021
  YS02001580           JUNCTION      0.00   126.13     0  02:08           0     0.00445       0.757
  YS02001583           JUNCTION      0.00   191.01     0  02:08           0      0.0154      -5.353
  YS02001586           JUNCTION    537.54   537.54     0  02:15        1.17        1.18       0.109
  YS02001590           JUNCTION      0.00   317.71     0  02:26           0        1.03      -0.051
  YS02001593           JUNCTION      0.00   317.77     0  02:26           0        1.03       0.010
  YS02001596           JUNCTION      0.00   317.68     0  02:26           0        1.03      -0.007
  YS02001600           JUNCTION      0.00   317.73     0  02:26           0        1.03       0.003
  YS02001601           JUNCTION   1005.88  1323.32     0  02:14        1.66        2.69       0.021
  YS02001602           JUNCTION      0.00   525.56     0  02:07           0        1.89       0.017
  YS02001605           JUNCTION      0.00   525.46     0  02:07           0        1.83       0.030
  YS02001607           JUNCTION      0.00   525.40     0  02:07           0        1.83       0.098
  YS02001610           JUNCTION      0.00   536.66     0  02:07           0        1.85       0.105
  YS02001613           JUNCTION      0.00   542.54     0  02:07           0        1.61       0.093
  YS02001616           JUNCTION      0.00   541.36     0  02:07           0         1.6       0.014
  YS02001619           JUNCTION    959.56   959.56     0  02:15        1.86        3.43      -0.011
  YS02001622           JUNCTION      0.00   933.28     0  02:09           0         3.4      -0.010
  YS02001625           JUNCTION      0.00  1044.49     0  02:16           0        3.43       0.253
  YS02001629           JUNCTION      0.00   933.33     0  02:07           0        3.02       0.020
  YS02001633           JUNCTION    755.19  1404.20     0  02:10         1.2        4.17       0.082
  YS02001641           JUNCTION      0.00  1403.96     0  02:10           0        4.14       0.064
  YS02001644           JUNCTION    678.57  1844.66     0  02:10        1.04        5.17       0.061
  YS02001647           JUNCTION      0.00  1844.35     0  02:10           0        5.11       0.006
  YS02001649           JUNCTION      0.00  2164.12     0  02:10           0        6.04       0.003
  YS02001652           JUNCTION      0.00   821.19     0  02:14           0       0.936      -0.134
  YS02001655           JUNCTION      0.15   820.85     0  02:14     0.00443       0.937       0.045
  YS02001658           JUNCTION      0.00   819.60     0  02:14           0       0.932      -0.061
  YS02001661           JUNCTION      0.00   820.20     0  02:13           0       0.933       0.048
  YS02001664           JUNCTION    664.26   664.26     0  02:14       0.933       0.933      -0.004
  YS02001745           JUNCTION    434.95   487.49     0  02:12       0.575       0.575       0.255
  YS02001748           JUNCTION      0.04   646.02     0  02:12      0.0013       0.576      -0.392
  YS02001751           JUNCTION      0.01   562.83     0  02:13    0.000317       0.582       0.047
  YS02001754           JUNCTION      0.26   562.89     0  02:13     0.00749       0.595      -0.211
  YS02001757           JUNCTION      0.00  3527.16     0  02:13           0        8.65       0.075
  YS02001759           JUNCTION    602.69  1415.98     0  02:12       0.791        2.01      -0.011
  YS02001762           JUNCTION      0.00   819.29     0  02:12           0        1.22      -0.007
  YS02001765           JUNCTION      0.00   819.58     0  02:12           0        1.22      -0.002
  YS02001767           JUNCTION      0.54   819.79     0  02:12      0.0154        1.22      -0.012
  YS02001770           JUNCTION    841.90   841.90     0  02:14        1.22        1.26      -0.054
  YS02001774           JUNCTION      0.00   398.46     0  02:11           0      0.0676       1.564
  YS02001779           JUNCTION      0.01   403.42     0  02:11    0.000144      0.0266      -2.739
  YS02001783           JUNCTION      0.00  1160.87     0  02:13           0         3.2       0.006
  YS02001784           JUNCTION      1.06  1162.04     0  02:13      0.0305        3.23       0.014
  YS02001786           JUNCTION      0.06  1162.07     0  02:13     0.00162        3.23       0.018
  YS02001788           JUNCTION      0.07  1162.09     0  02:13     0.00204        3.23       0.009
  YS02001790           JUNCTION      0.15  1170.13     0  02:13     0.00446        3.24       0.044
  YS02001791           JUNCTION      0.00  1270.74     0  02:13           0        3.24      -0.027
  YS02001793           JUNCTION      0.00  1221.29     0  02:13           0        3.24       0.007
  YS02001882           JUNCTION      0.00    69.28     0  02:09           0      0.0126       3.806
  YS02001884           JUNCTION      0.00    76.70     0  02:08           0       0.048       5.140
  YS02001887           JUNCTION    665.25   665.65     0  02:13       0.837        0.87       0.494
  YS02001890           JUNCTION      0.00   665.23     0  02:13           0        0.83       0.595
  YS02001895           JUNCTION      0.00   516.06     0  02:16           0       0.795       0.143
  YS02001898           JUNCTION      0.00   515.90     0  02:16           0       0.794       0.008
  YS02001901           JUNCTION      0.00   515.90     0  02:16           0       0.797       0.389
  YS02001904           JUNCTION      0.00   515.93     0  02:16           0       0.801       0.322
  YS02001907           JUNCTION      0.00  1623.18     0  02:15           0        2.64       0.659
  YS02001910           JUNCTION      0.00  1107.80     0  02:15           0        1.84       0.376
  YS02001915           JUNCTION    734.70  1107.65     0  02:15        1.16        1.89       0.065
  YS02001918           JUNCTION      0.00   462.09     0  02:10           0       0.764       0.002
  YS02001920           JUNCTION      2.87   460.69     0  02:10      0.0827       0.745       0.116
  YS02001923           JUNCTION      0.04   466.38     0  02:11     0.00109       0.648      -0.126
  YS02001926           JUNCTION      0.05   663.27     0  02:11      0.0015       0.626      -0.063
  YS02001929           JUNCTION    350.03   523.94     0  02:10       0.608       0.612       0.006
  YS02006553           JUNCTION      0.00   800.03     0  02:26           0        2.03       0.563
  YS02006556           JUNCTION      0.00   801.27     0  02:26           0        2.03       0.376
  YS02006558           JUNCTION    863.22  1179.27     0  02:10        1.22        3.23       0.102
  YS02006561           JUNCTION      0.00  1179.02     0  02:10           0         3.2      -0.003
  YS02163301           JUNCTION      0.00   933.52     0  02:09           0        3.01       0.047
  YS02163601           JUNCTION      0.11  1404.18     0  02:10     0.00317        4.13       0.118
  YS02164001           JUNCTION      0.00  1403.98     0  02:10           0        4.13       0.051
  CC-1                 OUTFALL       0.00   683.00     0  00:00           0        3.79       0.000
  CC-2                 OUTFALL       0.00   683.00     0  00:00           0        3.87       0.000
  JK-1                 OUTFALL       0.00  1000.00     0  00:00           0       0.111       0.000
  JK-2                 OUTFALL       0.00  1000.00     0  00:00           0         3.1       0.000
  WSC                  OUTFALL       0.00   524.21     0  03:01           0        2.61       0.000
  CC-storage           STORAGE       0.00  3528.22     0  02:13           0        10.9      -0.254
  JK-storage           STORAGE       0.00  1238.00     0  02:21           0        3.39      -0.468
  
  
  **********************
  Node Surcharge Summary
  **********************
  
  Surcharging occurs when water rises above the top of the highest conduit.
  ---------------------------------------------------------------------
                                               Max. Height   Min. Depth
                                   Hours       Above Crown    Below Rim
  Node                 Type      Surcharged         Meters       Meters
  ---------------------------------------------------------------------
  WS02006109           JUNCTION        0.46          0.323        1.497
  WS02006110           JUNCTION        0.05          0.171        1.679
  WS02006112           JUNCTION        0.06          0.055        1.625
  WS02006228           JUNCTION        0.45          0.393        1.807
  WS02006229           JUNCTION        0.47          0.451        1.999
  WS02006230           JUNCTION        0.05          0.313        1.257
  WS02006231           JUNCTION        0.08          0.449        1.081
  WS02006232           JUNCTION        0.51          0.755        0.725
  WS02006234           JUNCTION        0.13          1.201        0.039
  WS02006235           JUNCTION        0.47          1.290        0.000
  WS02006238           JUNCTION        0.50          1.430        0.000
  WS02006239           JUNCTION        0.48          1.290        0.000
  WS02006240           JUNCTION        0.48          1.390        0.000
  WS02006242           JUNCTION        0.54          0.820        0.000
  WS02006243           JUNCTION        0.49          0.770        0.000
  WS02006245           JUNCTION        0.49          0.850        0.000
  WS02006247           JUNCTION        0.50          0.760        0.000
  WS02006248           JUNCTION        0.48          0.380        0.000
  WS02006249           JUNCTION        0.49          0.390        0.000
  WS02006251           JUNCTION        0.08          0.198        0.982
  WS02006252           JUNCTION        0.95          1.100        0.000
  WS02006256           JUNCTION        5.15          2.050        0.000
  YS02001580           JUNCTION        0.41          0.450        0.000
  YS02001583           JUNCTION        0.41          0.500        0.000
  YS02001586           JUNCTION        0.51          0.510        0.000
  YS02001590           JUNCTION        0.57          0.750        0.000
  YS02001593           JUNCTION        0.57          0.708        0.132
  YS02001596           JUNCTION        0.67          0.956        0.114
  YS02001600           JUNCTION        0.80          1.190        0.000
  YS02001601           JUNCTION        1.14          1.440        0.000
  YS02001602           JUNCTION        1.03          1.270        0.000
  YS02001605           JUNCTION        0.97          1.180        0.000
  YS02001607           JUNCTION        0.52          0.680        0.000
  YS02001610           JUNCTION        0.54          0.680        0.000
  YS02001613           JUNCTION        0.51          0.693        0.007
  YS02001616           JUNCTION        0.47          0.610        0.000
  YS02001619           JUNCTION        0.46          0.610        0.000
  YS02001622           JUNCTION        0.45          0.620        0.000
  YS02001625           JUNCTION        0.62          0.780        0.000
  YS02001629           JUNCTION        0.39          0.470        0.000
  YS02001633           JUNCTION        0.62          1.014        0.046
  YS02001641           JUNCTION        0.53          0.961        0.139
  YS02001644           JUNCTION        0.47          0.920        0.000
  YS02001647           JUNCTION        0.30          0.821        0.079
  YS02001649           JUNCTION        0.34          1.050        0.000
  YS02001652           JUNCTION        0.22          1.130        0.000
  YS02001655           JUNCTION        0.15          1.200        0.000
  YS02001658           JUNCTION        0.07          1.300        0.000
  YS02001661           JUNCTION        0.01          0.861        0.529
  YS02001748           JUNCTION        0.01          1.190        0.000
  YS02001751           JUNCTION        0.09          1.200        0.000
  YS02001754           JUNCTION        0.15          1.150        0.000
  YS02001757           JUNCTION        0.34          1.184        0.026
  YS02001759           JUNCTION        0.28          1.177        0.033
  YS02001762           JUNCTION        0.26          1.150        0.000
  YS02001765           JUNCTION        0.24          1.100        0.000
  YS02001767           JUNCTION        0.22          1.030        0.000
  YS02001770           JUNCTION        0.21          0.920        0.000
  YS02001774           JUNCTION        0.27          1.013        0.037
  YS02001779           JUNCTION        0.16          0.680        0.000
  YS02001783           JUNCTION        0.40          0.833        0.767
  YS02001784           JUNCTION        0.37          0.533        0.957
  YS02001786           JUNCTION        0.28          0.340        1.090
  YS02001882           JUNCTION        0.35          0.830        0.000
  YS02001884           JUNCTION        0.36          0.862        0.008
  YS02001887           JUNCTION        0.39          0.867        0.083
  YS02001890           JUNCTION        0.40          0.760        0.000
  YS02001895           JUNCTION        0.34          0.701        0.049
  YS02001898           JUNCTION        0.34          0.740        0.000
  YS02001901           JUNCTION        0.38          0.818        0.052
  YS02001904           JUNCTION        0.37          0.656        0.194
  YS02001907           JUNCTION        0.58          0.950        0.000
  YS02001910           JUNCTION        0.42          1.100        0.000
  YS02001915           JUNCTION        0.35          1.000        0.000
  YS02001918           JUNCTION        0.28          0.810        0.000
  YS02001920           JUNCTION        0.29          1.140        0.000
  YS02001923           JUNCTION        0.01          0.820        0.000
  YS02001926           JUNCTION        0.03          0.900        0.000
  YS02001929           JUNCTION        0.01          0.780        0.000
  YS02006553           JUNCTION        0.59          1.082        0.108
  YS02006556           JUNCTION        0.50          1.145        0.205
  YS02006558           JUNCTION        0.49          1.159        0.241
  YS02006561           JUNCTION        0.24          0.685        0.465
  YS02163301           JUNCTION        0.61          0.930        0.100
  YS02163601           JUNCTION        0.65          1.050        0.030
  YS02164001           JUNCTION        0.54          0.968        0.132
  
  
  *********************
  Node Flooding Summary
  *********************
  
  Flooding refers to all water that overflows a node, whether it ponds or not.
  --------------------------------------------------------------------------
                                                             Total   Maximum
                                 Maximum   Time of Max       Flood    Ponded
                        Hours       Rate    Occurrence      Volume     Depth
  Node                 Flooded       LPS   days hr:min    10^6 ltr    Meters
  --------------------------------------------------------------------------
  WS02006235              0.01      0.12      0  02:54       0.000     0.000
  WS02006238              0.01      0.09      0  02:54       0.000     0.000
  WS02006239              0.01      0.06      0  02:54       0.000     0.000
  WS02006240              0.01      0.06      0  02:54       0.000     0.000
  WS02006242              0.01     12.29      0  02:54       0.000     0.000
  WS02006243              0.01      0.05      0  02:54       0.000     0.000
  WS02006245              0.01      0.04      0  02:54       0.000     0.000
  WS02006247              0.01      0.03      0  02:54       0.000     0.000
  WS02006248              0.01     21.32      0  02:54       0.000     0.000
  WS02006249              0.08    118.68      0  02:54       0.020     0.000
  WS02006252              0.01    245.63      0  00:00       0.000     0.000
  WS02006256              0.12    293.19      0  00:00       0.043     0.000
  YS02001580              0.01    111.44      0  02:08       0.000     0.000
  YS02001583              0.01    143.01      0  02:08       0.000     0.000
  YS02001586              0.31    220.03      0  02:15       0.132     0.000
  YS02001590              0.01     31.68      0  02:05       0.000     0.000
  YS02001600              0.01      4.18      0  02:06       0.000     0.000
  YS02001601              0.44    925.47      0  02:14       0.798     0.000
  YS02001602              0.33     61.85      0  02:13       0.064     0.000
  YS02001605              0.01     17.45      0  02:06       0.000     0.000
  YS02001607              0.01     13.08      0  02:07       0.000     0.000
  YS02001610              0.28    442.19      0  02:16       0.278     0.000
  YS02001616              0.01     66.74      0  02:07       0.000     0.000
  YS02001619              0.01     62.29      0  02:07       0.000     0.000
  YS02001622              0.01    111.12      0  02:07       0.000     0.000
  YS02001625              0.23   1044.40      0  02:16       0.438     0.000
  YS02001629              0.06    210.90      0  02:07       0.022     0.000
  YS02001644              0.06    457.82      0  02:13       0.052     0.000
  YS02001649              0.01     21.90      0  02:12       0.000     0.000
  YS02001652              0.01     53.83      0  02:12       0.000     0.000
  YS02001655              0.01     45.92      0  02:12       0.000     0.000
  YS02001658              0.01    526.73      0  02:12       0.001     0.000
  YS02001748              0.01    367.95      0  02:12       0.000     0.000
  YS02001751              0.01    328.51      0  02:12       0.000     0.000
  YS02001754              0.01    111.30      0  02:12       0.000     0.000
  YS02001762              0.01      4.72      0  02:12       0.000     0.000
  YS02001765              0.01      5.12      0  02:12       0.000     0.000
  YS02001767              0.01     93.55      0  02:11       0.000     0.000
  YS02001770              0.01    145.33      0  02:11       0.000     0.000
  YS02001779              0.04    371.29      0  02:11       0.011     0.000
  YS02001882              0.01     37.01      0  02:09       0.000     0.000
  YS02001890              0.10    155.35      0  02:13       0.030     0.000
  YS02001898              0.01     36.47      0  02:09       0.000     0.000
  YS02001907              0.23   1286.90      0  02:14       0.602     0.000
  YS02001910              0.01     41.39      0  02:09       0.000     0.000
  YS02001915              0.01    145.84      0  02:09       0.000     0.000
  YS02001918              0.01    230.86      0  02:11       0.002     0.000
  YS02001920              0.01     31.21      0  02:11       0.000     0.000
  YS02001923              0.01    457.72      0  02:11       0.003     0.000
  YS02001926              0.01    565.52      0  02:11       0.001     0.000
  YS02001929              0.01    253.04      0  02:11       0.000     0.000
  
  
  **********************
  Storage Volume Summary
  **********************
  
  ------------------------------------------------------------------------------------------------
                         Average    Avg   Evap  Exfil     Maximum    Max    Time of Max    Maximum
                          Volume   Pcnt   Pcnt   Pcnt      Volume   Pcnt     Occurrence    Outflow
  Storage Unit           1000 m³   Full   Loss   Loss     1000 m³   Full    days hr:min        LPS
  ------------------------------------------------------------------------------------------------
  CC-storage               1.768   27.6    0.0    0.0       3.185   49.7       0  02:37    1783.53
  JK-storage               0.081   27.9    0.0    0.0       0.201   69.0       0  02:29    2300.00
  
  
  ***********************
  Outfall Loading Summary
  ***********************
  
  -----------------------------------------------------------
                         Flow       Avg       Max       Total
                         Freq      Flow      Flow      Volume
  Outfall Node           Pcnt       LPS       LPS    10^6 ltr
  -----------------------------------------------------------
  CC-1                  51.91    683.00    683.00       3.793
  CC-2                  52.15    683.00    683.00       3.873
  JK-1                   0.41   1000.00   1000.00       0.111
  JK-2                  31.46   1000.00   1000.00       3.100
  WSC                   99.94    135.53    524.21       2.608
  -----------------------------------------------------------
  System                47.17   3501.53   3366.23      13.484
  
  
  ********************
  Link Flow Summary
  ********************
  
  -----------------------------------------------------------------------------
                                 Maximum  Time of Max   Maximum    Max/    Max/
                                  |Flow|   Occurrence   |Veloc|    Full    Full
  Link                 Type          LPS  days hr:min     m/sec    Flow   Depth
  -----------------------------------------------------------------------------
  1                    CONDUIT    524.21     0  03:01      2.78    0.18    0.29
  WS02003060WS02003069 CONDUIT    527.90     0  02:59      1.63    0.21    0.33
  WS02003066WSF200     CONDUIT    509.98     0  02:58      2.82    0.09    0.22
  WS02003067WS02003066 CONDUIT    509.51     0  02:58      1.17    0.16    0.41
  WS02003069WS02003072 CONDUIT    525.80     0  02:59      1.35    0.25    0.38
  WS02003072WS02003073 CONDUIT    524.29     0  03:00      1.41    1.13    0.36
  WS02004401WS02004402 CONDUIT    539.71     0  02:55      1.23    0.65    0.86
  WS02004402WS02004403 CONDUIT    537.92     0  02:55      1.24    0.77    0.88
  WS02004403WS02004404 CONDUIT    535.22     0  02:55      1.17    0.39    0.92
  WS02004404WS02004405 CONDUIT    534.23     0  02:55      1.43    5.23    0.96
  WS02004405WS02004406 CONDUIT    534.13     0  02:55      1.39    1.05    0.95
  WS02004406WS02004407 CONDUIT    531.90     0  02:56      1.03    0.24    0.62
  WS02004407WS02004409 CONDUIT    529.89     0  02:56      1.48    0.19    0.47
  WS02004409WS02004410 CONDUIT    523.55     0  02:56      0.97    0.68    0.65
  WS02004410WS02004411 CONDUIT    518.07     0  02:57      0.93    0.71    0.67
  WS02004411WS02004412 CONDUIT    514.37     0  02:57      0.91    0.73    0.68
  WS02004412WS02004413 CONDUIT    512.38     0  02:57      0.87    0.34    0.76
  WS02004413WS02003067 CONDUIT    508.56     0  02:58      1.08    0.22    0.58
  WS02006109WS02006110 CONDUIT    584.72     0  02:54      1.16    1.12    1.00
  WS02006110WS02006113 CONDUIT    597.56     0  02:54      1.40    0.54    0.79
  WS02006111WS02006112 CONDUIT    568.01     0  02:54      1.96    0.27    0.68
  WS02006112WS02006115 CONDUIT    570.61     0  02:54      0.79    0.34    0.87
  WS02006113WS02006111 CONDUIT    590.71     0  02:54      2.50    0.71    0.48
  WS02006115WS02006116 CONDUIT    548.24     0  02:54      1.19    0.70    0.75
  WS02006116WS02004401 CONDUIT    547.96     0  02:55      1.22    0.76    0.83
  WS02006228WS02006109 CONDUIT    580.35     0  02:54      1.15    2.54    1.00
  WS02006229WS02006228 CONDUIT    576.98     0  02:54      1.15    1.91    1.00
  WS02006230WS02006229 CONDUIT    578.91     0  02:54      1.50   12.88    1.00
  WS02006231WS02006230 CONDUIT    574.49     0  02:54      1.56    8.71    1.00
  WS02006232WS02006231 CONDUIT    577.87     0  02:54      1.50    1.21    1.00
  WS02006234WS02006232 CONDUIT    574.91     0  02:54      1.49    1.16    1.00
  WS02006235WS02006234 CONDUIT    566.23     0  02:50      1.47    5.97    1.00
  WS02006238WS02006235 CONDUIT    424.58     0  02:55      1.45    0.95    1.00
  WS02006239WS02006238 CONDUIT    423.26     0  02:55      1.10    1.35    1.00
  WS02006240WS02006239 CONDUIT    422.87     0  02:55      1.24    1.33    1.00
  WS02006242WS02006240 CONDUIT    420.18     0  02:55      1.13    1.67    1.00
  WS02006243WS02006242 CONDUIT    420.56     0  02:55      1.40    0.90    1.00
  WS02006245WS02006243 CONDUIT    419.99     0  02:55      1.45    1.24    1.00
  WS02006247WS02006245 CONDUIT    420.40     0  02:55      1.43    3.33    1.00
  WS02006248WS02006247 CONDUIT    419.58     0  02:55      1.44    0.91    1.00
  WS02006249WS02006248 CONDUIT    420.06     0  02:55      1.36    2.30    1.00
  WS02006251WS02006249 CONDUIT    459.02     0  00:00      1.99    1.32    1.00
  WS02006252WS02006251 CONDUIT    403.57     0  02:50     26.01    1.48    1.00
  WS02006256WS02006235 CONDUIT    288.91     0  00:00      4.23    3.06    1.00
  WSF200WS02003060     CONDUIT    511.73     0  02:58      2.04    0.11    0.27
  YS02001580YS02001583 CONDUIT    126.13     0  02:08      0.73    0.49    1.00
  YS02001583YS02001586 CONDUIT    169.36     0  02:07      0.76    0.26    1.00
  YS02001586YS02001590 CONDUIT    317.71     0  02:26      1.26    0.56    1.00
  YS02001590YS02001593 CONDUIT    317.77     0  02:26      1.12    1.99    1.00
  YS02001593YS02001596 CONDUIT    317.68     0  02:26      1.75    0.50    1.00
  YS02001596YS02001600 CONDUIT    317.73     0  02:26      1.23    0.62    1.00
  YS02001600YS02001601 CONDUIT    317.77     0  02:27      1.12    0.55    1.00
  YS02001601YS02001602 CONDUIT    525.56     0  02:07      1.86    1.90    1.00
  YS02001602YS02001605 CONDUIT    525.46     0  02:07      1.86   11.12    1.00
  YS02001605YS02001607 CONDUIT    525.40     0  02:07      1.86    2.88    1.00
  YS02001607YS02001610 CONDUIT    536.66     0  02:07      0.68    0.51    1.00
  YS02001610YS02001613 CONDUIT    542.54     0  02:07      0.69    0.63    1.00
  YS02001613YS02001616 CONDUIT    541.36     0  02:07      0.70    0.46    1.00
  YS02001616YS02001619 CONDUIT    508.92     0  02:34      0.68    0.88    1.00
  YS02001619YS02001622 CONDUIT    933.28     0  02:09      1.20    1.38    1.00
  YS02001622YS02001625 CONDUIT    933.44     0  02:07      1.19    0.50    1.00
  YS02001625YS02001629 CONDUIT    933.33     0  02:07      1.20    0.44    1.00
  YS02001629YS02163301 CONDUIT    933.52     0  02:09      1.19    1.15    1.00
  YS02001633YS02163601 CONDUIT   1404.07     0  02:10      1.79    1.47    1.00
  YS02001641YS02001644 CONDUIT   1404.10     0  02:10      1.79    4.54    1.00
  YS02001644YS02001647 CONDUIT   1844.35     0  02:10      2.35    1.08    1.00
  YS02001647YS02001649 CONDUIT   1851.32     0  02:10      2.39    0.98    1.00
  YS02001649YS02001757 CONDUIT   2164.54     0  02:10      2.76    1.31    1.00
  YS02001652YS02001649 CONDUIT    821.28     0  02:14      1.05    0.41    1.00
  YS02001655YS02001652 CONDUIT    821.19     0  02:14      1.32    0.40    1.00
  YS02001658YS02001655 CONDUIT    820.70     0  02:14      1.95    0.35    1.00
  YS02001661YS02001658 CONDUIT    819.60     0  02:14      2.39    0.32    1.00
  YS02001664YS02001661 CONDUIT    820.20     0  02:13      2.44    0.26    0.80
  YS02001745YS02001748 CONDUIT    645.97     0  02:12      2.29    0.25    0.93
  YS02001748YS02001751 CONDUIT    562.82     0  02:13      1.78    0.28    1.00
  YS02001751YS02001754 CONDUIT    562.63     0  02:13      1.47    0.27    1.00
  YS02001754YS02001757 CONDUIT    562.78     0  02:13      0.72    0.23    1.00
  YS02001757CaochengTiaoxuchi CONDUIT   3528.22     0  02:13      5.07    1.53    1.00
  YS02001759YS02001757 CONDUIT   1416.41     0  02:12      1.80    1.01    1.00
  YS02001762YS02001759 CONDUIT    819.62     0  02:12      1.04    0.94    1.00
  YS02001765YS02001762 CONDUIT    819.29     0  02:12      1.04    0.77    1.00
  YS02001767YS02001765 CONDUIT    819.58     0  02:12      1.04    1.03    1.00
  YS02001770YS02001767 CONDUIT    819.25     0  02:12      1.04    3.25    1.00
  YS02001774YS02001770 CONDUIT    398.46     0  02:11      0.51    0.25    1.00
  YS02001779YS02001774 CONDUIT    403.41     0  02:11      0.52    0.20    1.00
  YS02001783YS02001784 CONDUIT   1160.98     0  02:13      2.31    1.60    1.00
  YS02001784YS02001785 CONDUIT   1162.02     0  02:13      2.31    2.70    1.00
  YS02001786YS02001788 CONDUIT   1162.02     0  02:13      2.49    2.24    0.89
  YS02001788YS02001790 CONDUIT   1169.97     0  02:13      2.71    0.86    0.83
  YS02001790YS02001791 CONDUIT   1270.74     0  02:13      3.40    1.38    0.70
  YS02001791YS02001793 CONDUIT   1221.29     0  02:13      6.73    0.52    0.41
  YS02001793JiankangQianchi CONDUIT   1238.00     0  02:21      2.49    0.10    0.62
  YS02001882YS02001884 CONDUIT     69.28     0  02:09      0.09    0.08    1.00
  YS02001884YS02001887 CONDUIT     76.70     0  02:08      0.10    0.10    1.00
  YS02001887YS02001890 CONDUIT    665.23     0  02:13      0.85    1.14    1.00
  YS02001890YS02001895 CONDUIT    516.06     0  02:16      0.66    0.24    1.00
  YS02001895YS02001898 CONDUIT    515.90     0  02:16      0.66    0.90    1.00
  YS02001898YS02001901 CONDUIT    515.90     0  02:16      0.66    0.33    1.00
  YS02001901YS02001904 CONDUIT    515.93     0  02:16      0.66    0.80    1.00
  YS02001904YS02001907 CONDUIT    515.90     0  02:16      0.66    0.18    1.00
  YS02001907YS02006553 CONDUIT    800.03     0  02:26      0.89    0.94    1.00
  YS02001910YS02001907 CONDUIT   1107.75     0  02:15      1.41    0.62    1.00
  YS02001915YS02001910 CONDUIT   1107.80     0  02:15      1.41    0.55    1.00
  YS02001918YS02001915 CONDUIT    462.09     0  02:10      0.59    0.25    1.00
  YS02001920YS02001918 CONDUIT    457.82     0  02:10      0.67    0.44    1.00
  YS02001923YS02001920 CONDUIT    461.31     0  02:10      0.70    0.21    1.00
  YS02001926YS02001923 CONDUIT    443.50     0  02:11      0.97    0.63    1.00
  YS02001929YS02001926 CONDUIT    402.73     0  02:11      1.15    0.19    1.00
  YS02006553YS02006556 CONDUIT    801.27     0  02:26      1.02    0.69    1.00
  YS02006556YS02006558 CONDUIT    803.07     0  02:26      1.02    0.63    1.00
  YS02006558YS02006561 CONDUIT   1179.02     0  02:10      4.17    2.61    1.00
  YS02006561YS02001783 CONDUIT   1160.87     0  02:13      2.31    0.60    1.00
  YS02163301YS02001633 CONDUIT    933.27     0  02:09      1.19    0.88    1.00
  YS02163601YS02164001 CONDUIT   1403.98     0  02:10      1.79    1.24    1.00
  YS02164001YS02001641 CONDUIT   1403.96     0  02:10      1.79    1.92    1.00
  CC-R1                PUMP       683.00     0  00:00              1.00
  CC-R2                PUMP       683.00     0  00:00              1.00
  CC-S1                PUMP       200.00     0  00:00              1.00
  CC-S2                PUMP       200.00     0  00:00              1.00
  JK-R1                PUMP      1000.00     0  00:00              1.00
  JK-R2                PUMP      1000.00     0  00:00              1.00
  JK-S                 PUMP       300.00     0  00:00              1.00
  
  
  ***************************
  Flow Classification Summary
  ***************************
  
  -------------------------------------------------------------------------------------
                      Adjusted    ---------- Fraction of Time in Flow Class ---------- 
                       /Actual         Up    Down  Sub   Sup   Up    Down  Norm  Inlet 
  Conduit               Length    Dry  Dry   Dry   Crit  Crit  Crit  Crit  Ltd   Ctrl  
  -------------------------------------------------------------------------------------
  1                       1.00   0.00  0.00  0.00  0.00  1.00  0.00  0.00  0.54  0.00
  WS02003060WS02003069    1.00   0.00  0.00  0.00  0.98  0.02  0.00  0.00  0.84  0.00
  WS02003066WSF200        1.00   0.06  0.00  0.00  0.00  0.94  0.00  0.00  0.93  0.00
  WS02003067WS02003066    1.00   0.05  0.01  0.00  0.94  0.00  0.00  0.00  0.00  0.00
  WS02003069WS02003072    1.00   0.00  0.00  0.00  0.99  0.01  0.00  0.00  0.92  0.00
  WS02003072WS02003073    1.00   0.00  0.00  0.00  0.00  0.00  0.00  1.00  0.00  0.00
  WS02004401WS02004402    1.00   0.02  0.00  0.00  0.98  0.00  0.00  0.00  0.00  0.00
  WS02004402WS02004403    1.00   0.02  0.00  0.00  0.98  0.00  0.00  0.00  0.00  0.00
  WS02004403WS02004404    1.00   0.00  0.03  0.00  0.97  0.00  0.00  0.00  0.00  0.00
  WS02004404WS02004405    1.00   0.00  0.00  0.00  1.00  0.00  0.00  0.00  0.00  0.00
  WS02004405WS02004406    1.00   0.00  0.00  0.00  1.00  0.00  0.00  0.00  0.00  0.00
  WS02004406WS02004407    1.00   0.00  0.03  0.00  0.96  0.00  0.00  0.00  0.00  0.00
  WS02004407WS02004409    1.00   0.04  0.00  0.00  0.96  0.01  0.00  0.00  0.96  0.00
  WS02004409WS02004410    1.00   0.04  0.00  0.00  0.96  0.00  0.00  0.00  0.00  0.00
  WS02004410WS02004411    1.00   0.04  0.00  0.00  0.96  0.00  0.00  0.00  0.00  0.00
  WS02004411WS02004412    1.00   0.04  0.00  0.00  0.96  0.00  0.00  0.00  0.00  0.00
  WS02004412WS02004413    1.00   0.04  0.00  0.00  0.96  0.00  0.00  0.00  0.00  0.00
  WS02004413WS02003067    1.00   0.04  0.01  0.00  0.00  0.00  0.95  0.00  0.00  0.00
  WS02006109WS02006110    1.00   0.00  0.01  0.00  0.98  0.00  0.01  0.00  0.00  0.00
  WS02006110WS02006113    1.00   0.01  0.01  0.00  0.98  0.00  0.00  0.00  0.00  0.00
  WS02006111WS02006112    1.00   0.02  0.00  0.00  0.98  0.00  0.00  0.00  0.98  0.00
  WS02006112WS02006115    1.00   0.02  0.00  0.00  0.97  0.00  0.00  0.00  0.00  0.00
  WS02006113WS02006111    1.00   0.02  0.00  0.00  0.00  0.98  0.00  0.00  0.08  0.00
  WS02006115WS02006116    1.00   0.02  0.00  0.00  0.97  0.00  0.00  0.01  0.00  0.00
  WS02006116WS02004401    1.00   0.02  0.00  0.00  0.98  0.00  0.00  0.00  0.00  0.00
  WS02006228WS02006109    1.00   0.00  0.00  0.00  1.00  0.00  0.00  0.00  0.00  0.00
  WS02006229WS02006228    1.00   0.00  0.00  0.00  0.99  0.00  0.00  0.01  0.00  0.00
  WS02006230WS02006229    1.00   0.00  0.00  0.00  0.99  0.00  0.00  0.01  0.01  0.00
  WS02006231WS02006230    1.00   0.00  0.00  0.00  0.08  0.00  0.92  0.00  0.00  0.00
  WS02006232WS02006231    1.00   0.00  0.00  0.00  0.99  0.00  0.00  0.00  0.00  0.00
  WS02006234WS02006232    1.00   0.00  0.00  0.00  1.00  0.00  0.00  0.00  0.30  0.00
  WS02006235WS02006234    1.00   0.00  0.00  0.00  0.51  0.00  0.49  0.00  0.00  0.00
  WS02006238WS02006235    1.00   0.00  0.00  0.00  1.00  0.00  0.00  0.00  0.00  0.00
  WS02006239WS02006238    1.00   0.00  0.00  0.00  1.00  0.00  0.00  0.00  0.41  0.00
  WS02006240WS02006239    1.00   0.00  0.00  0.00  0.38  0.00  0.00  0.61  0.01  0.00
  WS02006242WS02006240    1.00   0.00  0.00  0.00  0.99  0.00  0.00  0.00  0.00  0.00
  WS02006243WS02006242    1.00   0.00  0.00  0.00  0.99  0.00  0.00  0.00  0.76  0.00
  WS02006245WS02006243    1.00   0.00  0.00  0.00  0.70  0.00  0.00  0.30  0.00  0.00
  WS02006247WS02006245    1.00   0.00  0.00  0.00  0.97  0.00  0.00  0.02  0.00  0.00
  WS02006248WS02006247    1.00   0.00  0.00  0.00  0.99  0.00  0.00  0.01  0.68  0.00
  WS02006249WS02006248    1.00   0.00  0.00  0.00  0.30  0.00  0.70  0.00  0.00  0.00
  WS02006251WS02006249    1.00   0.00  0.00  0.00  0.99  0.01  0.00  0.00  0.68  0.00
  WS02006252WS02006251    1.00   0.00  0.68  0.00  0.01  0.00  0.31  0.00  0.00  0.00
  WS02006256WS02006235    1.00   0.00  0.00  0.00  1.00  0.00  0.00  0.00  0.00  0.00
  WSF200WS02003060        1.00   0.00  0.06  0.00  0.59  0.35  0.00  0.00  0.78  0.00
  YS02001580YS02001583    1.00   0.26  0.57  0.00  0.16  0.00  0.00  0.00  0.67  0.00
  YS02001583YS02001586    1.00   0.43  0.35  0.00  0.22  0.00  0.00  0.00  0.67  0.00
  YS02001586YS02001590    1.00   0.13  0.00  0.00  0.41  0.05  0.00  0.42  0.37  0.00
  YS02001590YS02001593    1.00   0.13  0.01  0.00  0.08  0.00  0.78  0.00  0.00  0.00
  YS02001593YS02001596    1.00   0.14  0.00  0.00  0.10  0.01  0.00  0.76  0.02  0.00
  YS02001596YS02001600    1.00   0.14  0.00  0.00  0.16  0.01  0.00  0.68  0.05  0.00
  YS02001600YS02001601    1.00   0.13  0.01  0.00  0.86  0.00  0.00  0.00  0.63  0.00
  YS02001601YS02001602    1.00   0.13  0.01  0.00  0.86  0.00  0.00  0.00  0.00  0.00
  YS02001602YS02001605    1.00   0.14  0.00  0.00  0.86  0.00  0.00  0.00  0.00  0.00
  YS02001605YS02001607    1.00   0.14  0.00  0.00  0.86  0.00  0.00  0.00  0.00  0.00
  YS02001607YS02001610    1.00   0.13  0.01  0.00  0.86  0.00  0.00  0.00  0.02  0.00
  YS02001610YS02001613    1.00   0.13  0.00  0.00  0.87  0.00  0.00  0.00  0.01  0.00
  YS02001613YS02001616    1.00   0.13  0.00  0.00  0.87  0.00  0.00  0.00  0.01  0.00
  YS02001616YS02001619    1.00   0.13  0.00  0.00  0.87  0.00  0.00  0.00  0.00  0.00
  YS02001619YS02001622    1.00   0.13  0.00  0.00  0.87  0.00  0.00  0.00  0.29  0.00
  YS02001622YS02001625    1.00   0.13  0.00  0.00  0.87  0.00  0.00  0.00  0.06  0.00
  YS02001625YS02001629    1.00   0.13  0.06  0.00  0.12  0.00  0.69  0.00  0.00  0.00
  YS02001629YS02163301    1.00   0.17  0.01  0.00  0.82  0.00  0.00  0.00  0.00  0.00
  YS02001633YS02163601    1.00   0.00  0.01  0.00  0.99  0.00  0.00  0.00  0.15  0.00
  YS02001641YS02001644    1.00   0.00  0.01  0.00  0.99  0.00  0.00  0.00  0.00  0.00
  YS02001644YS02001647    1.00   0.00  0.19  0.00  0.81  0.00  0.00  0.00  0.00  0.00
  YS02001647YS02001649    1.00   0.00  0.19  0.00  0.46  0.35  0.00  0.00  0.58  0.00
  YS02001649YS02001757    1.00   0.00  0.00  0.00  0.62  0.38  0.00  0.00  0.55  0.00
  YS02001652YS02001649    1.00   0.00  0.00  0.00  0.95  0.05  0.00  0.00  0.78  0.00
  YS02001655YS02001652    1.00   0.00  0.00  0.00  0.14  0.01  0.00  0.84  0.08  0.00
  YS02001658YS02001655    1.00   0.00  0.15  0.00  0.60  0.26  0.00  0.00  0.75  0.00
  YS02001661YS02001658    1.00   0.15  0.00  0.00  0.44  0.41  0.00  0.00  0.74  0.00
  YS02001664YS02001661    1.00   0.13  0.00  0.00  0.77  0.11  0.00  0.00  0.86  0.00
  YS02001745YS02001748    1.00   0.00  0.00  0.00  0.03  0.01  0.00  0.96  0.02  0.00
  YS02001748YS02001751    1.00   0.00  0.00  0.00  0.78  0.22  0.00  0.00  0.81  0.00
  YS02001751YS02001754    1.00   0.00  0.00  0.00  0.08  0.01  0.00  0.91  0.03  0.00
  YS02001754YS02001757    1.00   0.00  0.00  0.00  1.00  0.00  0.00  0.00  0.89  0.00
  YS02001757CaochengTiaoxuchi    1.00   0.00  0.00  0.00  0.95  0.05  0.00  0.00  0.89  0.00
  YS02001759YS02001757    1.00   0.00  0.00  0.00  1.00  0.00  0.00  0.00  0.63  0.00
  YS02001762YS02001759    1.00   0.00  0.00  0.00  1.00  0.00  0.00  0.00  0.06  0.00
  YS02001765YS02001762    1.00   0.00  0.00  0.00  1.00  0.00  0.00  0.00  0.77  0.00
  YS02001767YS02001765    1.00   0.00  0.00  0.00  1.00  0.00  0.00  0.00  0.00  0.00
  YS02001770YS02001767    1.00   0.00  0.00  0.00  1.00  0.00  0.00  0.00  0.00  0.00
  YS02001774YS02001770    1.00   0.00  0.14  0.00  0.69  0.00  0.17  0.00  0.04  0.00
  YS02001779YS02001774    1.00   0.00  0.00  0.00  1.00  0.00  0.00  0.00  0.82  0.00
  YS02001783YS02001784    1.00   0.00  0.20  0.00  0.80  0.00  0.00  0.00  0.56  0.00
  YS02001784YS02001785    1.00   0.00  0.00  0.00  1.00  0.00  0.00  0.00  0.19  0.00
  YS02001786YS02001788    1.00   0.00  0.00  0.00  0.80  0.20  0.00  0.00  0.00  0.00
  YS02001788YS02001790    1.00   0.00  0.00  0.00  0.21  0.79  0.00  0.00  0.83  0.00
  YS02001790YS02001791    1.00   0.00  0.00  0.00  0.01  0.99  0.00  0.00  0.15  0.00
  YS02001791YS02001793    1.00   0.00  0.00  0.00  0.00  1.00  0.00  0.00  0.00  0.00
  YS02001793JiankangQianchi    1.00   0.00  0.00  0.00  0.97  0.03  0.00  0.00  0.98  0.00
  YS02001882YS02001884    1.00   0.16  0.01  0.00  0.83  0.00  0.00  0.00  0.00  0.00
  YS02001884YS02001887    1.00   0.06  0.05  0.00  0.89  0.00  0.00  0.00  0.00  0.00
  YS02001887YS02001890    1.00   0.00  0.00  0.00  0.97  0.00  0.03  0.00  0.00  0.00
  YS02001890YS02001895    1.00   0.00  0.18  0.00  0.82  0.00  0.00  0.00  0.00  0.00
  YS02001895YS02001898    1.00   0.18  0.00  0.00  0.80  0.00  0.02  0.00  0.00  0.00
  YS02001898YS02001901    1.00   0.18  0.00  0.00  0.82  0.00  0.00  0.00  0.01  0.00
  YS02001901YS02001904    1.00   0.18  0.00  0.00  0.82  0.00  0.00  0.00  0.00  0.00
  YS02001904YS02001907    1.00   0.00  0.17  0.00  0.82  0.00  0.00  0.00  0.00  0.00
  YS02001907YS02006553    1.00   0.00  0.02  0.00  0.98  0.00  0.00  0.00  0.00  0.00
  YS02001910YS02001907    1.00   0.00  0.00  0.00  0.97  0.00  0.00  0.03  0.12  0.00
  YS02001915YS02001910    1.00   0.00  0.00  0.00  0.96  0.04  0.00  0.00  0.18  0.00
  YS02001918YS02001915    1.00   0.00  0.01  0.00  0.98  0.02  0.00  0.00  0.77  0.00
  YS02001920YS02001918    1.00   0.00  0.01  0.00  0.99  0.00  0.00  0.00  0.00  0.00
  YS02001923YS02001920    1.00   0.00  0.00  0.00  1.00  0.00  0.00  0.00  0.94  0.00
  YS02001926YS02001923    1.00   0.00  0.07  0.00  0.04  0.00  0.88  0.00  0.00  0.00
  YS02001929YS02001926    1.00   0.00  0.13  0.00  0.87  0.00  0.00  0.00  0.84  0.00
  YS02006553YS02006556    1.00   0.01  0.00  0.00  0.99  0.00  0.00  0.00  0.03  0.00
  YS02006556YS02006558    1.00   0.00  0.00  0.00  1.00  0.00  0.00  0.00  0.00  0.00
  YS02006558YS02006561    1.00   0.20  0.00  0.00  0.04  0.76  0.00  0.00  0.19  0.00
  YS02006561YS02001783    1.00   0.20  0.00  0.00  0.07  0.74  0.00  0.00  0.70  0.00
  YS02163301YS02001633    1.00   0.00  0.16  0.00  0.84  0.00  0.00  0.00  0.00  0.00
  YS02163601YS02164001    1.00   0.00  0.08  0.00  0.92  0.00  0.00  0.00  0.00  0.00
  YS02164001YS02001641    1.00   0.01  0.07  0.00  0.92  0.00  0.00  0.00  0.06  0.00
  
  
  *************************
  Conduit Surcharge Summary
  *************************
  
  ----------------------------------------------------------------------------
                                                           Hours        Hours 
                         --------- Hours Full --------   Above Full   Capacity
  Conduit                Both Ends  Upstream  Dnstream   Normal Flow   Limited
  ----------------------------------------------------------------------------
  WS02003072WS02003073        0.01      0.01      0.01      0.13         0.01
  WS02004404WS02004405        0.01      0.01      0.01      1.48         0.01
  WS02004405WS02004406        0.01      0.01      0.01      0.04         0.01
  WS02006109WS02006110        0.05      0.05      0.51      0.07         0.01
  WS02006110WS02006113        0.01      0.01      0.49      0.01         0.01
  WS02006111WS02006112        0.01      0.01      0.88      0.01         0.01
  WS02006112WS02006115        0.01      0.01      0.06      0.01         0.01
  WS02006228WS02006109        0.46      0.51      0.46      1.02         0.46
  WS02006229WS02006228        0.45      0.47      0.45      0.83         0.44
  WS02006230WS02006229        0.59      0.73      0.59      2.18         0.59
  WS02006231WS02006230        0.05      0.05      0.08      1.76         0.01
  WS02006232WS02006231        0.08      0.08      0.51      0.08         0.01
  WS02006234WS02006232        0.42      0.42      0.51      0.08         0.08
  WS02006235WS02006234        0.12      0.13      0.47      1.60         0.01
  WS02006238WS02006235        0.48      0.48      0.52      0.01         0.01
  WS02006239WS02006238        0.50      0.51      0.50      0.79         0.48
  WS02006240WS02006239        0.47      0.49      0.48      0.78         0.45
  WS02006242WS02006240        0.48      0.48      0.61      0.94         0.01
  WS02006243WS02006242        0.49      0.49      0.54      0.01         0.01
  WS02006245WS02006243        0.49      0.50      0.49      0.74         0.42
  WS02006247WS02006245        0.49      0.50      0.49      1.49         0.49
  WS02006248WS02006247        0.49      0.49      0.50      0.01         0.01
  WS02006249WS02006248        0.48      0.48      0.49      1.43         0.01
  WS02006251WS02006249        0.49      0.49      0.49      0.85         0.48
  WS02006252WS02006251        0.88      0.88      0.94      0.88         0.01
  WS02006256WS02006235        1.61      1.62      5.13      0.13         0.01
  YS02001580YS02001583        0.41      0.41      0.44      0.01         0.01
  YS02001583YS02001586        0.41      0.41      0.51      0.01         0.01
  YS02001586YS02001590        0.52      0.52      0.57      0.01         0.01
  YS02001590YS02001593        0.57      0.57      0.59      0.61         0.01
  YS02001593YS02001596        0.58      0.58      0.67      0.01         0.01
  YS02001596YS02001600        0.71      0.71      0.80      0.01         0.01
  YS02001600YS02001601        0.85      0.85      1.14      0.01         0.01
  YS02001601YS02001602        1.03      1.03      1.18      0.82         0.01
  YS02001602YS02001605        0.97      0.97      1.03      2.02         0.01
  YS02001605YS02001607        0.93      0.97      0.93      1.11         0.93
  YS02001607YS02001610        0.52      0.52      0.54      0.01         0.01
  YS02001610YS02001613        0.51      0.51      0.54      0.01         0.01
  YS02001613YS02001616        0.47      0.47      0.51      0.01         0.01
  YS02001616YS02001619        0.46      0.46      0.47      0.01         0.01
  YS02001619YS02001622        0.45      0.46      0.45      0.61         0.45
  YS02001622YS02001625        0.45      0.45      0.62      0.01         0.01
  YS02001625YS02001629        0.39      0.39      0.62      0.01         0.01
  YS02001629YS02163301        0.60      0.60      0.61      0.28         0.28
  YS02001633YS02163601        0.62      0.62      0.65      0.39         0.39
  YS02001641YS02001644        0.47      0.53      0.47      1.22         0.47
  YS02001644YS02001647        0.30      0.30      0.47      0.05         0.01
  YS02001647YS02001649        0.30      0.30      0.34      0.01         0.01
  YS02001649YS02001757        0.33      0.34      0.34      0.35         0.29
  YS02001652YS02001649        0.23      0.23      0.34      0.01         0.01
  YS02001655YS02001652        0.15      0.15      0.22      0.01         0.01
  YS02001658YS02001655        0.07      0.07      0.15      0.01         0.01
  YS02001661YS02001658        0.01      0.01      0.07      0.01         0.01
  YS02001664YS02001661        0.01      0.01      0.02      0.01         0.01
  YS02001745YS02001748        0.01      0.01      0.01      0.01         0.01
  YS02001748YS02001751        0.05      0.05      0.09      0.01         0.01
  YS02001751YS02001754        0.09      0.09      0.15      0.01         0.01
  YS02001754YS02001757        0.16      0.16      0.34      0.01         0.01
  YS02001757CaochengTiaoxuchi        0.12      0.34      0.54      0.33         0.08
  YS02001759YS02001757        0.28      0.28      0.34      0.01         0.02
  YS02001762YS02001759        0.26      0.26      0.28      0.01         0.02
  YS02001765YS02001762        0.24      0.24      0.26      0.01         0.01
  YS02001767YS02001765        0.22      0.22      0.24      0.02         0.04
  YS02001770YS02001767        0.22      0.23      0.22      0.44         0.22
  YS02001774YS02001770        0.21      0.21      0.27      0.01         0.01
  YS02001779YS02001774        0.16      0.16      0.27      0.01         0.01
  YS02001783YS02001784        0.37      0.40      0.37      0.52         0.37
  YS02001784YS02001785        0.28      0.37      0.28      0.70         0.28
  YS02001786YS02001788        0.01      0.28      0.01      0.61         0.01
  YS02001790YS02001791        0.01      0.01      0.01      0.37         0.01
  YS02001793JiankangQianchi        0.01      0.01      7.24      0.01         0.01
  YS02001882YS02001884        0.35      0.35      0.36      0.01         0.01
  YS02001884YS02001887        0.38      0.38      0.39      0.01         0.01
  YS02001887YS02001890        0.40      0.40      0.41      0.05         0.01
  YS02001890YS02001895        0.34      0.34      0.42      0.01         0.01
  YS02001895YS02001898        0.34      0.34      0.34      0.01         0.01
  YS02001898YS02001901        0.34      0.34      0.38      0.01         0.01
  YS02001901YS02001904        0.37      0.37      0.38      0.01         0.01
  YS02001904YS02001907        0.37      0.37      0.59      0.01         0.01
  YS02001907YS02006553        0.71      0.71      0.77      0.01         0.01
  YS02001910YS02001907        0.42      0.42      0.58      0.01         0.01
  YS02001915YS02001910        0.35      0.35      0.42      0.01         0.01
  YS02001918YS02001915        0.28      0.28      0.35      0.01         0.01
  YS02001920YS02001918        0.28      0.28      0.29      0.01         0.01
  YS02001923YS02001920        0.23      0.23      0.29      0.01         0.01
  YS02001926YS02001923        0.01      0.01      0.03      0.01         0.01
  YS02001929YS02001926        0.01      0.01      0.03      0.01         0.01
  YS02006553YS02006556        0.50      0.50      0.59      0.01         0.01
  YS02006556YS02006558        0.55      0.55      0.60      0.01         0.01
  YS02006558YS02006561        0.31      0.49      0.31      0.67         0.31
  YS02006561YS02001783        0.24      0.24      0.40      0.01         0.01
  YS02163301YS02001633        0.61      0.61      0.64      0.01         0.01
  YS02163601YS02164001        0.54      0.54      0.65      0.23         0.01
  YS02164001YS02001641        0.53      0.54      0.53      0.61         0.44
  
  
  ***************
  Pumping Summary
  ***************
  
  ---------------------------------------------------------------------------------------------------------
                                                  Min       Avg       Max     Total     Power    % Time Off
                        Percent   Number of      Flow      Flow      Flow    Volume     Usage    Pump Curve
  Pump                 Utilized   Start-Ups       LPS       LPS       LPS  10^6 ltr     Kw-hr    Low   High
  ---------------------------------------------------------------------------------------------------------
  CC-R1                   19.63          46      0.00    683.00    683.00     3.861     66.11    0.0   70.9
  CC-R2                   20.05          46      0.00    683.00    683.00     3.943     67.74    0.0   66.3
  CC-S1                   20.67          45      0.00    200.00    200.00     1.191      7.86    0.0    0.0
  CC-S2                   11.53           6      0.00    200.00    200.00     0.664      4.34    0.0    0.0
  JK-R1                    0.38           3      0.00   1000.00   1000.00     0.109      0.76    0.0    0.0
  JK-R2                   11.00          46      0.00   1000.00   1000.00     3.167     27.79    0.0    0.0
  JK-S                     1.56           6      0.00    300.00    300.00     0.135      2.60    0.0    0.0
  

  Analysis begun on:  Mon Feb 24 09:44:36 2025
  Analysis ended on:  Mon Feb 24 09:44:37 2025
  Total elapsed time: 00:00:01