
  EPA STORM WATER MANAGEMENT MODEL - VERSION 5.2 (Build 5.2.4)
  PYSWMM TOOLKIT API - VERSION v1.0 (2023-11-27)
  ------------------------------------------------------------

  WARNING 04: minimum elevation drop used for Conduit WS02004404WS02004405
  WARNING 03: negative offset ignored for Link YS02001904YS02001907
  
  ****************
  Analysis Options
  ****************
  Flow Units ............... LPS
  Process Models:
    Rainfall/Runoff ........ YES
    RDII ................... NO
    Snowmelt ............... NO
    Groundwater ............ NO
    Flow Routing ........... YES
    Ponding Allowed ........ NO
    Water Quality .......... NO
  Infiltration Method ...... HORTON
  Flow Routing Method ...... DYNWAVE
  Surcharge Method ......... EXTRAN
  Starting Date ............ 08/28/2015 08:00:00
  Ending Date .............. 08/28/2015 16:00:00
  Antecedent Dry Days ...... 8.0
  Report Time Step ......... 00:01:00
  Wet Time Step ............ 00:01:00
  Dry Time Step ............ 00:01:00
  Routing Time Step ........ 30.00 sec
  Variable Time Step ....... YES
  Maximum Trials ........... 8
  Number of Threads ........ 4
  Head Tolerance ........... 0.001500 m
  
  
  **************************        Volume         Depth
  Runoff Quantity Continuity     hectare-m            mm
  **************************     ---------       -------
  Total Precipitation ......         7.050       212.540
  Evaporation Loss .........         0.000         0.000
  Infiltration Loss ........         0.112         3.367
  Surface Runoff ...........         6.906       208.214
  Final Storage ............         0.033         1.001
  Continuity Error (%) .....        -0.020
  
  
  **************************        Volume        Volume
  Flow Routing Continuity        hectare-m      10^6 ltr
  **************************     ---------     ---------
  Dry Weather Inflow .......         0.025         0.251
  Wet Weather Inflow .......         6.905        69.052
  Groundwater Inflow .......         0.000         0.000
  RDII Inflow ..............         0.000         0.000
  External Inflow ..........         0.083         0.834
  External Outflow .........         3.037        30.367
  Flooding Loss ............         4.051        40.515
  Evaporation Loss .........         0.000         0.000
  Exfiltration Loss ........         0.000         0.000
  Initial Stored Volume ....         0.243         2.431
  Final Stored Volume ......         0.181         1.812
  Continuity Error (%) .....        -0.176
  
  
  *************************
  Highest Continuity Errors
  *************************
  Node YS02001583 (-18.24%)
  Node YS02001884 (5.27%)
  Node WS02006256 (-1.40%)
  
  
  ***************************
  Time-Step Critical Elements
  ***************************
  Link WS02006252WS02006251 (24.27%)
  Link YS02001791YS02001793 (21.21%)
  Link WS02004404WS02004405 (15.45%)
  Link WS02006235WS02006234 (13.12%)
  Link WS02006238WS02006235 (8.84%)
  
  
  ********************************
  Highest Flow Instability Indexes
  ********************************
  Link WS02006113WS02006111 (47)
  Link YS02001602YS02001605 (39)
  Link YS02001605YS02001607 (36)
  Link YS02001607YS02001610 (34)
  Link YS02001884YS02001887 (31)
  
  
  *********************************
  Most Frequent Nonconverging Nodes
  *********************************
  Node CC-1 (26.38%)
  Node CC-2 (26.38%)
  Node JK-1 (26.38%)
  Node JK-2 (26.38%)
  Node WSC (26.38%)
  
  
  *************************
  Routing Time Step Summary
  *************************
  Minimum Time Step           :     0.00 sec
  Average Time Step           :     2.44 sec
  Maximum Time Step           :     6.43 sec
  % of Time in Steady State   :     0.00
  Average Iterations per Step :     4.10
  % of Steps Not Converging   :    26.38
  Time Step Frequencies       :
     30.000 - 13.228 sec      :     0.00 %
     13.228 -  5.833 sec      :    14.01 %
      5.833 -  2.572 sec      :    19.18 %
      2.572 -  1.134 sec      :    35.53 %
      1.134 -  0.500 sec      :    31.29 %
  
  
  ***************************
  Subcatchment Runoff Summary
  ***************************
  
  ------------------------------------------------------------------------------------------------------------------------------
                            Total      Total      Total      Total     Imperv       Perv      Total       Total     Peak  Runoff
                           Precip      Runon       Evap      Infil     Runoff     Runoff     Runoff      Runoff   Runoff   Coeff
  Subcatchment                 mm         mm         mm         mm         mm         mm         mm    10^6 ltr      LPS
  ------------------------------------------------------------------------------------------------------------------------------
  sub60                    212.54       0.00       0.00       1.98     185.87      23.53     209.40        2.75   550.98   0.985
  sub61                    212.54       0.00       0.00       2.89     175.32      33.25     208.57        3.83   767.14   0.981
  sub62                    212.54       0.00       0.00       1.32     194.28      15.69     209.97        5.75  1147.14   0.988
  sub63                    212.54       0.00       0.00       5.38     149.96      56.26     206.23        4.68   926.99   0.970
  sub64                    212.54       0.00       0.00       2.72     179.47      29.17     208.64        5.01   993.58   0.982
  sub65                    212.54       0.00       0.00       2.35     183.67      25.28     208.96        5.75  1137.30   0.983
  sub66                    212.54       0.00       0.00       6.70     149.83      54.94     204.77        9.55  1725.90   0.963
  sub67                    212.54       0.00       0.00       1.25     194.34      15.76     210.10        3.91   782.45   0.989
  sub68                    212.54       0.00       0.00       2.39     181.63      27.37     209.00        5.75  1150.13   0.983
  sub69                    212.54       0.00       0.00       2.22     180.56      29.67     210.23        7.78  1525.91   0.989
  sub70                    212.54       0.00       0.00       7.39     140.11      64.87     204.99        5.92  1008.36   0.964
  sub71                    212.54       0.00       0.00       1.36     194.23      15.64     209.87        5.49  1086.10   0.987
  sub72                    212.54       0.00       0.00       1.22     196.26      13.66     209.93        2.89   563.38   0.988
  
  
  ******************
  Node Depth Summary
  ******************
  
  ---------------------------------------------------------------------------------
                                 Average  Maximum  Maximum  Time of Max    Reported
                                   Depth    Depth      HGL   Occurrence   Max Depth
  Node                 Type       Meters   Meters   Meters  days hr:min      Meters
  ---------------------------------------------------------------------------------
  WS02003060           JUNCTION     0.24     0.38     5.31     0  02:28        0.38
  WS02003066           JUNCTION     0.19     0.30     5.85     0  02:28        0.30
  WS02003067           JUNCTION     0.49     0.70     6.02     0  02:28        0.70
  WS02003069           JUNCTION     0.26     0.43     5.01     0  02:29        0.43
  WS02003072           JUNCTION     0.33     0.50     4.87     0  02:29        0.50
  WS02003073           JUNCTION     0.19     0.30     4.36     0  02:30        0.30
  WS02004401           JUNCTION     0.58     0.85     6.85     0  02:25        0.85
  WS02004402           JUNCTION     0.61     0.87     6.83     0  02:26        0.87
  WS02004403           JUNCTION     0.63     0.89     6.82     0  02:26        0.89
  WS02004404           JUNCTION     0.70     0.96     6.81     0  02:26        0.96
  WS02004405           JUNCTION     0.70     0.95     6.80     0  02:26        0.95
  WS02004406           JUNCTION     0.70     0.95     6.78     0  02:26        0.95
  WS02004407           JUNCTION     0.18     0.29     6.61     0  02:26        0.29
  WS02004409           JUNCTION     0.39     0.66     6.43     0  02:27        0.66
  WS02004410           JUNCTION     0.42     0.68     6.40     0  02:27        0.68
  WS02004411           JUNCTION     0.43     0.69     6.37     0  02:27        0.68
  WS02004412           JUNCTION     0.45     0.69     6.33     0  02:27        0.69
  WS02004413           JUNCTION     0.60     0.85     6.32     0  02:28        0.85
  WS02006109           JUNCTION     0.67     1.25     7.87     0  02:39        1.25
  WS02006110           JUNCTION     0.67     1.35     7.93     0  01:49        1.29
  WS02006111           JUNCTION     0.18     0.29     6.99     0  02:14        0.29
  WS02006112           JUNCTION     0.74     1.07     6.95     0  01:49        1.05
  WS02006113           JUNCTION     0.28     0.46     7.35     0  01:33        0.46
  WS02006115           JUNCTION     0.48     0.75     6.89     0  02:25        0.75
  WS02006116           JUNCTION     0.56     0.83     6.87     0  02:25        0.83
  WS02006228           JUNCTION     0.67     1.52     8.17     0  01:49        1.52
  WS02006229           JUNCTION     0.64     1.60     8.29     0  01:49        1.60
  WS02006230           JUNCTION     0.66     1.68     8.42     0  01:49        1.35
  WS02006231           JUNCTION     0.45     2.24     9.36     0  01:52        2.24
  WS02006232           JUNCTION     0.59     2.18     9.22     0  01:52        2.18
  WS02006234           JUNCTION     0.53     1.83     8.99     0  01:49        1.83
  WS02006235           JUNCTION     0.57     1.77     8.93     0  01:49        1.77
  WS02006238           JUNCTION     0.60     1.79     8.93     0  01:49        1.79
  WS02006239           JUNCTION     0.58     1.73     8.94     0  01:49        1.73
  WS02006240           JUNCTION     0.55     1.64     8.93     0  01:49        1.64
  WS02006242           JUNCTION     0.63     1.55     8.82     0  01:49        1.55
  WS02006243           JUNCTION     0.55     1.37     8.79     0  01:49        1.37
  WS02006245           JUNCTION     0.55     1.28     8.77     0  01:31        1.23
  WS02006247           JUNCTION     0.58     1.24     8.74     0  01:31        1.21
  WS02006248           JUNCTION     0.54     1.10     8.69     0  01:29        1.10
  WS02006249           JUNCTION     0.57     1.09     8.69     0  01:22        1.09
  WS02006251           JUNCTION     0.57     1.37     9.04     0  01:22        1.16
  WS02006252           JUNCTION     0.39     1.50     9.74     0  00:00        0.72
  WS02006256           JUNCTION     1.04     2.35     9.28     0  00:00        2.35
  WSF200               JUNCTION     0.17     0.29     5.52     0  02:28        0.29
  YS02001580           JUNCTION     0.31     1.05     9.59     0  01:06        0.77
  YS02001583           JUNCTION     0.35     1.14     9.64     0  01:06        0.87
  YS02001586           JUNCTION     0.49     1.13     9.30     0  01:05        1.13
  YS02001590           JUNCTION     0.63     1.40     9.26     0  01:06        1.37
  YS02001593           JUNCTION     0.56     1.38     9.24     0  01:05        1.31
  YS02001596           JUNCTION     0.72     1.72     9.14     0  01:05        1.66
  YS02001600           JUNCTION     0.82     1.87     9.00     0  01:05        1.87
  YS02001601           JUNCTION     1.00     2.06     8.90     0  01:05        2.06
  YS02001602           JUNCTION     0.89     1.87     8.77     0  01:07        1.87
  YS02001605           JUNCTION     0.84     1.78     8.68     0  01:07        1.78
  YS02001607           JUNCTION     0.80     1.68     8.53     0  01:07        1.68
  YS02001610           JUNCTION     0.84     1.68     8.48     0  01:07        1.68
  YS02001613           JUNCTION     0.81     1.70     8.54     0  01:07        1.70
  YS02001616           JUNCTION     0.75     1.61     8.52     0  01:07        1.61
  YS02001619           JUNCTION     0.74     1.61     8.54     0  01:07        1.61
  YS02001622           JUNCTION     0.72     1.62     8.52     0  01:07        1.58
  YS02001625           JUNCTION     0.95     1.78     8.38     0  01:07        1.78
  YS02001629           JUNCTION     0.90     1.85     8.40     0  01:07        1.85
  YS02001633           JUNCTION     0.98     2.08     8.53     0  01:07        2.03
  YS02001641           JUNCTION     0.97     1.98     8.42     0  01:08        1.95
  YS02001644           JUNCTION     0.97     1.92     8.35     0  01:07        1.92
  YS02001647           JUNCTION     0.79     1.90     8.51     0  02:37        1.90
  YS02001649           JUNCTION     0.89     2.05     8.44     0  01:09        2.05
  YS02001652           JUNCTION     0.77     2.16     8.76     0  01:08        2.16
  YS02001655           JUNCTION     0.65     2.10     8.95     0  01:08        1.94
  YS02001658           JUNCTION     0.52     1.73     8.87     0  02:47        1.56
  YS02001661           JUNCTION     0.44     1.63     9.03     0  02:47        1.40
  YS02001664           JUNCTION     0.17     0.75     8.67     0  01:10        0.66
  YS02001745           JUNCTION     0.31     1.79     9.31     0  01:09        0.82
  YS02001748           JUNCTION     0.51     2.13     9.21     0  01:09        1.26
  YS02001751           JUNCTION     0.60     2.17     9.05     0  01:09        1.74
  YS02001754           JUNCTION     0.73     2.20     8.81     0  01:09        1.96
  YS02001757           JUNCTION     0.93     2.21     8.47     0  01:09        2.21
  YS02001759           JUNCTION     0.88     2.21     8.57     0  02:37        2.21
  YS02001762           JUNCTION     0.87     2.15     8.55     0  01:09        2.15
  YS02001765           JUNCTION     0.85     2.10     8.55     0  01:09        2.10
  YS02001767           JUNCTION     0.84     2.03     8.52     0  01:09        2.03
  YS02001770           JUNCTION     0.85     1.95     8.44     0  01:09        1.95
  YS02001774           JUNCTION     0.91     2.05     8.47     0  02:37        2.05
  YS02001779           JUNCTION     0.72     1.68     8.37     0  01:08        1.68
  YS02001783           JUNCTION     0.53     1.25     7.39     0  01:07        1.23
  YS02001784           JUNCTION     0.50     1.16     7.23     0  01:07        1.12
  YS02001786           JUNCTION     0.40     1.01     7.04     0  01:07        0.87
  YS02001788           JUNCTION     0.28     0.62     6.60     0  01:41        0.62
  YS02001790           JUNCTION     0.32     0.73     6.37     0  01:23        0.73
  YS02001791           JUNCTION     0.20     0.44     5.91     0  01:09        0.44
  YS02001793           JUNCTION     0.11     0.28     5.12     0  02:21        0.28
  YS02001882           JUNCTION     0.70     1.83     8.55     0  01:07        1.66
  YS02001884           JUNCTION     0.78     1.93     8.55     0  01:07        1.76
  YS02001887           JUNCTION     0.86     2.00     8.54     0  01:07        1.88
  YS02001890           JUNCTION     0.88     1.81     8.32     0  01:07        1.81
  YS02001895           JUNCTION     0.66     1.75     8.50     0  01:07        1.59
  YS02001898           JUNCTION     0.66     1.77     8.51     0  01:07        1.60
  YS02001901           JUNCTION     0.77     1.87     8.48     0  01:07        1.71
  YS02001904           JUNCTION     0.75     1.85     8.48     0  01:07        1.66
  YS02001907           JUNCTION     1.04     1.96     8.25     0  01:07        1.96
  YS02001910           JUNCTION     0.89     2.10     8.61     0  01:07        1.94
  YS02001915           JUNCTION     0.73     2.00     8.72     0  01:07        1.86
  YS02001918           JUNCTION     0.55     1.81     8.88     0  01:07        1.54
  YS02001920           JUNCTION     0.63     2.14     9.15     0  01:08        1.62
  YS02001923           JUNCTION     0.47     2.03     9.29     0  01:08        1.38
  YS02001926           JUNCTION     0.43     1.90     9.35     0  01:08        1.21
  YS02001929           JUNCTION     0.31     1.78     9.47     0  01:08        1.00
  YS02006553           JUNCTION     1.05     1.98     8.26     0  01:07        1.98
  YS02006556           JUNCTION     1.02     1.97     8.28     0  01:07        1.96
  YS02006558           JUNCTION     1.06     2.01     8.28     0  01:11        2.01
  YS02006561           JUNCTION     0.37     0.92     7.58     0  01:07        0.89
  YS02163301           JUNCTION     0.92     1.96     8.47     0  01:07        1.94
  YS02163601           JUNCTION     1.02     2.08     8.48     0  01:08        2.04
  YS02164001           JUNCTION     0.96     2.04     8.49     0  02:37        2.04
  CC-1                 OUTFALL      0.00     0.00     0.00     0  00:00        0.00
  CC-2                 OUTFALL      0.00     0.00     0.00     0  00:00        0.00
  JK-1                 OUTFALL      0.00     0.00     0.00     0  00:00        0.00
  JK-2                 OUTFALL      0.00     0.00     0.00     0  00:00        0.00
  WSC                  OUTFALL      0.18     0.30     0.97     0  02:30        0.30
  CC-storage           STORAGE      1.17     2.30     7.80     0  02:49        2.30
  JK-storage           STORAGE      2.20     4.23     5.03     0  02:20        4.17
  
  
  *******************
  Node Inflow Summary
  *******************
  
  -------------------------------------------------------------------------------------------------
                                  Maximum  Maximum                  Lateral       Total        Flow
                                  Lateral    Total  Time of Max      Inflow      Inflow     Balance
                                   Inflow   Inflow   Occurrence      Volume      Volume       Error
  Node                 Type           LPS      LPS  days hr:min    10^6 ltr    10^6 ltr     Percent
  -------------------------------------------------------------------------------------------------
  WS02003060           JUNCTION     16.53   545.41     0  02:28       0.476        6.02       0.032
  WS02003066           JUNCTION      0.00   528.52     0  02:28           0        5.55       0.023
  WS02003067           JUNCTION      0.00   528.39     0  02:28           0        5.55       0.072
  WS02003069           JUNCTION      0.32   545.56     0  02:29     0.00922        6.03       0.059
  WS02003072           JUNCTION      0.00   545.03     0  02:29           0        6.02       0.107
  WS02003073           JUNCTION      1.82   546.41     0  02:30      0.0524        6.07       0.083
  WS02004401           JUNCTION      0.00   537.37     0  02:04           0        5.65       0.175
  WS02004402           JUNCTION      0.00   534.97     0  02:25           0        5.64       0.179
  WS02004403           JUNCTION      0.00   534.42     0  02:25           0        5.63       0.175
  WS02004404           JUNCTION      0.16   534.13     0  02:26     0.00467        5.62       0.153
  WS02004405           JUNCTION      0.04   534.34     0  02:26      0.0011        5.62       0.211
  WS02004406           JUNCTION      0.00   534.31     0  02:26           0         5.6       0.363
  WS02004407           JUNCTION      0.00   533.81     0  02:26           0        5.58       0.016
  WS02004409           JUNCTION      0.00   533.51     0  02:26           0        5.58       0.040
  WS02004410           JUNCTION      0.00   532.06     0  02:27           0        5.58       0.071
  WS02004411           JUNCTION      0.00   530.61     0  02:27           0        5.58       0.093
  WS02004412           JUNCTION      0.00   529.40     0  02:27           0        5.57       0.126
  WS02004413           JUNCTION      0.00   528.89     0  02:27           0        5.56       0.233
  WS02006109           JUNCTION      1.23   593.28     0  01:49      0.0354        5.69       0.154
  WS02006110           JUNCTION      0.00   596.92     0  01:49           0        5.69       0.113
  WS02006111           JUNCTION      0.00   560.27     0  02:20           0        5.68       0.012
  WS02006112           JUNCTION      0.00   542.81     0  02:05           0        5.68       0.323
  WS02006113           JUNCTION      0.00   583.31     0  01:49           0        5.68       0.029
  WS02006115           JUNCTION      0.00   558.25     0  01:49           0        5.66       0.113
  WS02006116           JUNCTION      0.00   541.79     0  01:34           0        5.65       0.078
  WS02006228           JUNCTION      0.00   586.87     0  01:49           0        5.66       0.082
  WS02006229           JUNCTION      0.00   584.83     0  01:49           0        5.67       0.073
  WS02006230           JUNCTION     10.28   598.04     0  01:52       0.296        5.67       0.050
  WS02006231           JUNCTION      0.00   574.21     0  01:41           0        5.37       0.003
  WS02006232           JUNCTION      0.00   573.64     0  01:41           0        5.38       0.123
  WS02006234           JUNCTION      0.00   570.50     0  01:41           0        5.38      -0.109
  WS02006235           JUNCTION      0.00   564.97     0  01:41           0        5.42       0.090
  WS02006238           JUNCTION      0.00   426.87     0  03:56           0        4.63      -0.064
  WS02006239           JUNCTION      0.00   426.99     0  03:56           0         4.6      -0.052
  WS02006240           JUNCTION      0.00   426.88     0  03:56           0        4.58      -0.022
  WS02006242           JUNCTION      0.00   426.29     0  03:56           0        4.57      -0.022
  WS02006243           JUNCTION      0.00   425.68     0  03:56           0        4.56      -0.075
  WS02006245           JUNCTION      0.00   425.98     0  03:56           0        4.57       0.178
  WS02006247           JUNCTION      0.00   426.75     0  03:56           0        4.57       0.017
  WS02006248           JUNCTION      0.00   426.49     0  03:56           0        4.57       0.044
  WS02006249           JUNCTION      0.00   459.02     0  00:00           0        4.77       0.153
  WS02006251           JUNCTION      0.08   406.60     0  01:22     0.00222        4.78       0.032
  WS02006252           JUNCTION      0.00   400.00     0  00:00           0        4.76      -0.266
  WS02006256           JUNCTION      0.00   300.00     0  00:00           0         1.2      -1.385
  WSF200               JUNCTION      0.00   528.61     0  02:28           0        5.55       0.007
  YS02001580           JUNCTION      0.00   281.79     0  01:06           0     0.00457      -8.650
  YS02001583           JUNCTION      0.00   303.83     0  01:05           0      0.0147     -15.426
  YS02001586           JUNCTION   1008.36  1008.85     0  01:29        5.92        5.93       0.034
  YS02001590           JUNCTION      0.00   318.64     0  02:37           0        2.76      -0.035
  YS02001593           JUNCTION      0.00   318.30     0  01:52           0        2.77       0.017
  YS02001596           JUNCTION      0.00   318.09     0  02:38           0        2.77      -0.037
  YS02001600           JUNCTION      0.00   318.09     0  02:38           0        2.78       0.028
  YS02001601           JUNCTION   1525.91  1843.32     0  01:26        7.78        10.6       0.005
  YS02001602           JUNCTION      0.00   619.90     0  01:06           0        3.69       0.016
  YS02001605           JUNCTION      0.00   619.68     0  01:06           0        3.23       0.013
  YS02001607           JUNCTION      0.00   619.36     0  01:06           0        3.23       0.034
  YS02001610           JUNCTION      0.00   955.34     0  01:26           0        5.64       0.038
  YS02001613           JUNCTION      0.00   619.52     0  01:30           0        3.28       0.022
  YS02001616           JUNCTION      0.00   626.65     0  01:07           0         3.3      -0.014
  YS02001619           JUNCTION   1725.90  1725.90     0  01:28        9.55        10.4      -0.003
  YS02001622           JUNCTION      0.00  1053.86     0  01:25           0        7.98      -0.010
  YS02001625           JUNCTION      0.00  1505.49     0  01:29           0        9.94       0.054
  YS02001629           JUNCTION      0.00   735.86     0  01:06           0        3.65       0.058
  YS02001633           JUNCTION   1137.50  1267.79     0  01:07        5.76        7.34       0.038
  YS02001641           JUNCTION      0.00  1250.98     0  01:07           0        5.28       0.045
  YS02001644           JUNCTION    993.62  1880.92     0  01:08        5.01        10.3       0.021
  YS02001647           JUNCTION      0.00  1879.68     0  01:08           0        5.33       0.005
  YS02001649           JUNCTION      0.00  2168.99     0  01:08           0          10      -0.000
  YS02001652           JUNCTION      0.00   935.06     0  01:10           0        4.71      -0.134
  YS02001655           JUNCTION      0.15   934.86     0  01:10     0.00443        4.71       0.054
  YS02001658           JUNCTION      0.00   934.53     0  01:10           0         4.7       0.050
  YS02001661           JUNCTION      0.00   927.87     0  01:25           0        4.68      -0.524
  YS02001664           JUNCTION    926.99   926.99     0  01:26        4.68        4.68       0.022
  YS02001745           JUNCTION    550.98   658.47     0  01:09        2.75        2.75       0.057
  YS02001748           JUNCTION      0.04   660.06     0  01:10      0.0013        2.75      -0.137
  YS02001751           JUNCTION      0.01   718.52     0  01:08    0.000317        2.76       0.109
  YS02001754           JUNCTION      0.26   666.37     0  01:10     0.00749        2.77      -0.135
  YS02001757           JUNCTION      0.00  3559.62     0  01:10           0        20.2       0.027
  YS02001759           JUNCTION    767.18  1451.39     0  01:09        3.83        7.44      -0.012
  YS02001762           JUNCTION      0.00   785.31     0  01:09           0        3.61      -0.018
  YS02001765           JUNCTION      0.00   786.49     0  01:09           0        3.61      -0.021
  YS02001767           JUNCTION      0.54   785.41     0  01:09      0.0154        3.61      -0.012
  YS02001770           JUNCTION   1147.29  1147.29     0  01:25        5.76         5.8      -0.005
  YS02001774           JUNCTION      0.00   630.30     0  01:08           0        2.22       0.014
  YS02001779           JUNCTION      0.01   638.81     0  01:08    0.000144        2.18      -0.074
  YS02001783           JUNCTION      0.00  1161.88     0  01:08           0        9.09       0.003
  YS02001784           JUNCTION      1.06  1163.10     0  01:08      0.0305        9.12       0.006
  YS02001786           JUNCTION      0.06  1163.01     0  01:08     0.00162        9.12       0.008
  YS02001788           JUNCTION      0.07  1163.22     0  01:08     0.00204        9.12       0.003
  YS02001790           JUNCTION      0.15  1183.08     0  01:08     0.00446        9.13       0.034
  YS02001791           JUNCTION      0.00  1294.89     0  01:23           0        9.13      -0.057
  YS02001793           JUNCTION      0.00  1256.13     0  01:19           0        9.13       0.005
  YS02001882           JUNCTION      0.00   120.93     0  01:07           0      0.0134       5.487
  YS02001884           JUNCTION      0.00   239.34     0  01:06           0      0.0498       5.559
  YS02001887           JUNCTION    782.90   784.54     0  01:24        3.92        3.95       0.109
  YS02001890           JUNCTION      0.00   783.92     0  01:24           0        3.91       0.132
  YS02001895           JUNCTION      0.00   623.60     0  01:07           0        3.42       0.121
  YS02001898           JUNCTION      0.00   621.76     0  01:07           0        3.42      -0.057
  YS02001901           JUNCTION      0.00   617.91     0  01:07           0        3.43       0.107
  YS02001904           JUNCTION      0.00   614.10     0  01:07           0        3.46       0.074
  YS02001907           JUNCTION      0.00  2169.39     0  01:25           0        11.9       0.146
  YS02001910           JUNCTION      0.00  1653.51     0  01:25           0        8.47       0.086
  YS02001915           JUNCTION   1086.12  1653.01     0  01:25        5.49        8.52       0.011
  YS02001918           JUNCTION      0.00   923.87     0  01:07           0        3.07       0.004
  YS02001920           JUNCTION      2.87   886.74     0  01:07      0.0827        3.03       0.026
  YS02001923           JUNCTION      0.04  1060.80     0  01:07     0.00109        2.93      -0.044
  YS02001926           JUNCTION      0.05  1396.06     0  01:08      0.0015        2.91      -0.113
  YS02001929           JUNCTION    563.38  1223.09     0  01:08        2.89         2.9      -0.077
  YS02006553           JUNCTION      0.00   810.71     0  03:05           0        3.42       0.350
  YS02006556           JUNCTION      0.00   809.39     0  03:03           0        3.45       0.232
  YS02006558           JUNCTION   1151.01  1185.72     0  01:07        5.78        9.16       0.035
  YS02006561           JUNCTION      0.00  1187.47     0  01:07           0        9.09       0.001
  YS02163301           JUNCTION      0.00   702.60     0  03:10           0        3.65       0.036
  YS02163601           JUNCTION      0.11  1266.48     0  01:07     0.00317        5.25       0.079
  YS02164001           JUNCTION      0.00  1263.24     0  01:07           0        5.25       0.041
  CC-1                 OUTFALL       0.00   683.00     0  00:00           0        8.17       0.000
  CC-2                 OUTFALL       0.00   683.00     0  00:00           0        8.09       0.000
  JK-1                 OUTFALL       0.00  1000.00     0  00:00           0       0.332       0.000
  JK-2                 OUTFALL       0.00  1000.00     0  00:00           0         7.7       0.000
  WSC                  OUTFALL       0.00   545.39     0  02:30           0        6.07       0.000
  CC-storage           STORAGE       0.00  3560.22     0  01:10           0        22.5      -0.152
  JK-storage           STORAGE       0.00  1261.65     0  01:35           0        9.28      -0.169
  
  
  **********************
  Node Surcharge Summary
  **********************
  
  Surcharging occurs when water rises above the top of the highest conduit.
  ---------------------------------------------------------------------
                                               Max. Height   Min. Depth
                                   Hours       Above Crown    Below Rim
  Node                 Type      Surcharged         Meters       Meters
  ---------------------------------------------------------------------
  WS02006109           JUNCTION        2.83          0.435        1.385
  WS02006110           JUNCTION        0.49          0.435        1.415
  WS02006112           JUNCTION        0.57          0.067        1.613
  WS02006228           JUNCTION        2.82          0.692        1.508
  WS02006229           JUNCTION        2.83          0.799        1.651
  WS02006230           JUNCTION        0.52          0.600        0.970
  WS02006231           JUNCTION        0.80          1.530        0.000
  WS02006232           JUNCTION        2.85          1.480        0.000
  WS02006234           JUNCTION        1.42          1.114        0.126
  WS02006235           JUNCTION        2.74          1.055        0.235
  WS02006238           JUNCTION        2.80          1.069        0.361
  WS02006239           JUNCTION        2.79          0.995        0.295
  WS02006240           JUNCTION        2.82          0.930        0.460
  WS02006242           JUNCTION        2.86          0.820        0.000
  WS02006243           JUNCTION        2.82          0.658        0.112
  WS02006245           JUNCTION        2.81          0.573        0.277
  WS02006247           JUNCTION        2.81          0.534        0.226
  WS02006248           JUNCTION        2.80          0.380        0.000
  WS02006249           JUNCTION        2.80          0.390        0.000
  WS02006251           JUNCTION        0.93          0.338        0.842
  WS02006252           JUNCTION        3.08          1.100        0.000
  WS02006256           JUNCTION        6.14          2.050        0.000
  YS02001580           JUNCTION        2.08          0.450        0.000
  YS02001583           JUNCTION        2.08          0.500        0.000
  YS02001586           JUNCTION        2.16          0.510        0.000
  YS02001590           JUNCTION        2.21          0.750        0.000
  YS02001593           JUNCTION        2.22          0.755        0.085
  YS02001596           JUNCTION        2.27          0.991        0.079
  YS02001600           JUNCTION        2.36          1.190        0.000
  YS02001601           JUNCTION        2.54          1.440        0.000
  YS02001602           JUNCTION        2.50          1.270        0.000
  YS02001605           JUNCTION        2.49          1.180        0.000
  YS02001607           JUNCTION        2.23          0.680        0.000
  YS02001610           JUNCTION        2.25          0.680        0.000
  YS02001613           JUNCTION        2.23          0.700        0.000
  YS02001616           JUNCTION        2.21          0.610        0.000
  YS02001619           JUNCTION        2.20          0.610        0.000
  YS02001622           JUNCTION        2.20          0.620        0.000
  YS02001625           JUNCTION        2.34          0.780        0.000
  YS02001629           JUNCTION        2.18          0.470        0.000
  YS02001633           JUNCTION        2.40          1.060        0.000
  YS02001641           JUNCTION        2.40          0.981        0.119
  YS02001644           JUNCTION        2.40          0.920        0.000
  YS02001647           JUNCTION        2.27          0.900        0.000
  YS02001649           JUNCTION        2.40          1.050        0.000
  YS02001652           JUNCTION        2.24          1.130        0.000
  YS02001655           JUNCTION        2.11          1.105        0.095
  YS02001658           JUNCTION        1.92          0.727        0.573
  YS02001661           JUNCTION        0.35          0.559        0.831
  YS02001745           JUNCTION        0.01          0.790        0.560
  YS02001748           JUNCTION        1.87          1.055        0.135
  YS02001751           JUNCTION        2.07          1.168        0.032
  YS02001754           JUNCTION        2.20          1.149        0.001
  YS02001757           JUNCTION        2.48          1.210        0.000
  YS02001759           JUNCTION        2.41          1.210        0.000
  YS02001762           JUNCTION        2.38          1.150        0.000
  YS02001765           JUNCTION        2.34          1.100        0.000
  YS02001767           JUNCTION        2.31          1.030        0.000
  YS02001770           JUNCTION        2.29          0.920        0.000
  YS02001774           JUNCTION        2.36          1.050        0.000
  YS02001779           JUNCTION        2.18          0.680        0.000
  YS02001783           JUNCTION        2.01          0.449        1.151
  YS02001784           JUNCTION        2.00          0.362        1.128
  YS02001786           JUNCTION        1.94          0.207        1.223
  YS02001882           JUNCTION        1.98          0.830        0.000
  YS02001884           JUNCTION        1.99          0.870        0.000
  YS02001887           JUNCTION        2.01          0.950        0.000
  YS02001890           JUNCTION        2.01          0.760        0.000
  YS02001895           JUNCTION        1.97          0.750        0.000
  YS02001898           JUNCTION        1.97          0.740        0.000
  YS02001901           JUNCTION        2.00          0.870        0.000
  YS02001904           JUNCTION        1.99          0.850        0.000
  YS02001907           JUNCTION        2.09          0.950        0.000
  YS02001910           JUNCTION        2.02          1.100        0.000
  YS02001915           JUNCTION        1.98          1.000        0.000
  YS02001918           JUNCTION        1.93          0.810        0.000
  YS02001920           JUNCTION        1.94          1.140        0.000
  YS02001923           JUNCTION        0.67          0.820        0.000
  YS02001926           JUNCTION        0.76          0.900        0.000
  YS02001929           JUNCTION        0.01          0.780        0.000
  YS02006553           JUNCTION        2.10          0.980        0.210
  YS02006556           JUNCTION        2.06          0.928        0.422
  YS02006558           JUNCTION        2.05          0.914        0.486
  YS02006561           JUNCTION        1.91          0.122        1.028
  YS02163301           JUNCTION        2.38          0.956        0.074
  YS02163601           JUNCTION        2.44          1.080        0.000
  YS02164001           JUNCTION        2.39          1.035        0.065
  
  
  *********************
  Node Flooding Summary
  *********************
  
  Flooding refers to all water that overflows a node, whether it ponds or not.
  --------------------------------------------------------------------------
                                                             Total   Maximum
                                 Maximum   Time of Max       Flood    Ponded
                        Hours       Rate    Occurrence      Volume     Depth
  Node                 Flooded       LPS   days hr:min    10^6 ltr    Meters
  --------------------------------------------------------------------------
  WS02006231              0.01      6.83      0  01:52       0.000     0.000
  WS02006232              0.01     20.95      0  01:52       0.000     0.000
  WS02006242              0.01      2.70      0  01:49       0.000     0.000
  WS02006248              0.01     21.07      0  01:49       0.000     0.000
  WS02006249              0.86     95.56      0  01:22       0.196     0.000
  WS02006252              0.01    245.63      0  00:00       0.000     0.000
  WS02006256              1.11    293.19      0  00:00       0.408     0.000
  YS02001580              0.01    212.36      0  01:06       0.001     0.000
  YS02001583              0.01    211.06      0  01:06       0.001     0.000
  YS02001586              2.01    691.11      0  01:29       3.158     0.000
  YS02001590              0.01      1.28      0  01:06       0.000     0.000
  YS02001600              0.01     19.17      0  01:05       0.000     0.000
  YS02001601              2.11   1445.40      0  01:26       6.855     0.000
  YS02001602              2.08     62.07      0  02:36       0.458     0.000
  YS02001605              0.01     10.63      0  01:07       0.000     0.000
  YS02001607              0.01    383.31      0  01:07       0.003     0.000
  YS02001610              2.03    955.15      0  01:26       4.771     0.000
  YS02001613              0.01    277.41      0  01:07       0.001     0.000
  YS02001616              0.07    376.29      0  01:07       0.003     0.000
  YS02001619              0.16     66.21      0  01:07       0.018     0.000
  YS02001622              0.01    225.89      0  01:07       0.000     0.000
  YS02001625              2.05   1505.27      0  01:29       8.357     0.000
  YS02001629              0.49    251.96      0  01:07       0.125     0.000
  YS02001633              0.01      5.42      0  01:07       0.000     0.000
  YS02001644              1.88   1157.43      0  01:27       4.916     0.000
  YS02001647              0.01      0.58      0  02:37       0.000     0.000
  YS02001649              0.01    120.92      0  01:09       0.001     0.000
  YS02001652              0.01     79.57      0  01:08       0.000     0.000
  YS02001757              0.01      9.04      0  01:09       0.000     0.000
  YS02001759              0.01      1.09      0  02:37       0.000     0.000
  YS02001762              0.01     15.66      0  01:09       0.000     0.000
  YS02001765              0.01     13.67      0  01:09       0.000     0.000
  YS02001767              0.01      6.65      0  01:09       0.000     0.000
  YS02001770              0.01     41.59      0  01:09       0.000     0.000
  YS02001774              0.01      0.95      0  02:37       0.000     0.000
  YS02001779              1.87    597.84      0  01:26       2.167     0.000
  YS02001882              0.01     57.10      0  01:07       0.000     0.000
  YS02001884              0.01     33.43      0  01:07       0.000     0.000
  YS02001887              0.01     16.46      0  01:07       0.000     0.000
  YS02001890              1.09    370.14      0  01:07       0.486     0.000
  YS02001895              0.01     48.58      0  01:07       0.000     0.000
  YS02001898              0.01    231.44      0  01:07       0.001     0.000
  YS02001901              0.01     79.66      0  01:07       0.000     0.000
  YS02001904              0.01     62.94      0  01:07       0.000     0.000
  YS02001907              1.90   2159.78      0  01:25       8.495     0.000
  YS02001910              0.01     18.21      0  01:07       0.000     0.000
  YS02001915              0.01    320.23      0  01:07       0.001     0.000
  YS02001918              0.01    187.96      0  01:08       0.003     0.000
  YS02001920              0.01     35.24      0  01:08       0.000     0.000
  YS02001923              0.01     58.35      0  01:08       0.000     0.000
  YS02001926              0.01    475.22      0  01:08       0.001     0.000
  YS02001929              0.01   1081.54      0  01:08       0.009     0.000
  YS02163601              0.01     16.09      0  01:08       0.000     0.000
  CC-storage              0.21    124.96      0  02:49       0.077     0.000
  
  
  **********************
  Storage Volume Summary
  **********************
  
  ------------------------------------------------------------------------------------------------
                         Average    Avg   Evap  Exfil     Maximum    Max    Time of Max    Maximum
                          Volume   Pcnt   Pcnt   Pcnt      Volume   Pcnt     Occurrence    Outflow
  Storage Unit           1000 m³   Full   Loss   Loss     1000 m³   Full    days hr:min        LPS
  ------------------------------------------------------------------------------------------------
  CC-storage               3.269   51.0    0.0    0.0       6.410  100.0       0  02:49    1783.53
  JK-storage               0.111   38.0    0.0    0.0       0.213   73.0       0  02:20    2300.00
  
  
  ***********************
  Outfall Loading Summary
  ***********************
  
  -----------------------------------------------------------
                         Flow       Avg       Max       Total
                         Freq      Flow      Flow      Volume
  Outfall Node           Pcnt       LPS       LPS    10^6 ltr
  -----------------------------------------------------------
  CC-1                  62.72    683.00    683.00       8.173
  CC-2                  61.03    683.00    683.00       8.093
  JK-1                   1.40   1000.00   1000.00       0.332
  JK-2                  40.52   1000.00   1000.00       7.704
  WSC                   99.95    273.42    545.39       6.066
  -----------------------------------------------------------
  System                53.12   3639.42   3796.46      30.367
  
  
  ********************
  Link Flow Summary
  ********************
  
  -----------------------------------------------------------------------------
                                 Maximum  Time of Max   Maximum    Max/    Max/
                                  |Flow|   Occurrence   |Veloc|    Full    Full
  Link                 Type          LPS  days hr:min     m/sec    Flow   Depth
  -----------------------------------------------------------------------------
  1                    CONDUIT    545.39     0  02:30      2.81    0.19    0.30
  WS02003060WS02003069 CONDUIT    545.24     0  02:29      1.64    0.21    0.34
  WS02003066WSF200     CONDUIT    528.61     0  02:28      2.84    0.09    0.22
  WS02003067WS02003066 CONDUIT    528.52     0  02:28      1.20    0.17    0.41
  WS02003069WS02003072 CONDUIT    545.03     0  02:29      1.36    0.26    0.38
  WS02003072WS02003073 CONDUIT    544.59     0  02:30      1.43    1.18    0.37
  WS02004401WS02004402 CONDUIT    534.97     0  02:25      1.04    0.64    0.86
  WS02004402WS02004403 CONDUIT    534.42     0  02:25      1.05    0.77    0.88
  WS02004403WS02004404 CONDUIT    533.97     0  02:26      1.05    0.39    0.92
  WS02004404WS02004405 CONDUIT    534.30     0  02:26      1.19    5.23    0.96
  WS02004405WS02004406 CONDUIT    534.31     0  02:26      1.18    1.05    0.95
  WS02004406WS02004407 CONDUIT    533.81     0  02:26      1.04    0.24    0.62
  WS02004407WS02004409 CONDUIT    533.51     0  02:26      1.56    0.19    0.48
  WS02004409WS02004410 CONDUIT    532.06     0  02:27      1.03    0.69    0.67
  WS02004410WS02004411 CONDUIT    530.61     0  02:27      0.96    0.72    0.68
  WS02004411WS02004412 CONDUIT    529.40     0  02:27      0.93    0.75    0.69
  WS02004412WS02004413 CONDUIT    528.89     0  02:27      0.97    0.35    0.77
  WS02004413WS02003067 CONDUIT    528.39     0  02:28      1.10    0.23    0.59
  WS02006109WS02006110 CONDUIT    596.92     0  01:49      1.19    1.15    1.00
  WS02006110WS02006113 CONDUIT    583.31     0  01:49      1.41    0.53    0.79
  WS02006111WS02006112 CONDUIT    542.81     0  02:05      1.85    0.26    0.67
  WS02006112WS02006115 CONDUIT    558.25     0  01:49      0.84    0.33    0.87
  WS02006113WS02006111 CONDUIT    560.27     0  02:20      2.47    0.67    0.46
  WS02006115WS02006116 CONDUIT    541.79     0  01:34      1.11    0.70    0.76
  WS02006116WS02004401 CONDUIT    537.37     0  02:04      1.06    0.74    0.84
  WS02006228WS02006109 CONDUIT    592.05     0  01:49      1.18    2.59    1.00
  WS02006229WS02006228 CONDUIT    586.87     0  01:49      1.17    1.94    1.00
  WS02006230WS02006229 CONDUIT    584.83     0  01:49      1.52   13.02    1.00
  WS02006231WS02006230 CONDUIT    587.76     0  01:52      1.60    8.92    1.00
  WS02006232WS02006231 CONDUIT    574.21     0  01:41      1.50    1.20    1.00
  WS02006234WS02006232 CONDUIT    573.64     0  01:41      1.49    1.16    1.00
  WS02006235WS02006234 CONDUIT    570.50     0  01:41      1.48    6.02    1.00
  WS02006238WS02006235 CONDUIT    426.19     0  01:50      1.45    0.95    1.00
  WS02006239WS02006238 CONDUIT    426.87     0  03:56      1.11    1.37    1.00
  WS02006240WS02006239 CONDUIT    426.99     0  03:56      1.24    1.34    1.00
  WS02006242WS02006240 CONDUIT    426.88     0  03:56      1.13    1.70    1.00
  WS02006243WS02006242 CONDUIT    426.29     0  03:56      1.40    0.91    1.00
  WS02006245WS02006243 CONDUIT    425.68     0  03:56      1.45    1.26    1.00
  WS02006247WS02006245 CONDUIT    425.98     0  03:56      1.43    3.38    1.00
  WS02006248WS02006247 CONDUIT    426.75     0  03:56      1.44    0.93    1.00
  WS02006249WS02006248 CONDUIT    426.49     0  03:56      1.36    2.34    1.00
  WS02006251WS02006249 CONDUIT    459.02     0  00:00      1.99    1.32    1.00
  WS02006252WS02006251 CONDUIT    406.52     0  01:22     18.33    1.49    1.00
  WS02006256WS02006235 CONDUIT    288.91     0  00:00      4.23    3.06    1.00
  WSF200WS02003060     CONDUIT    528.88     0  02:28      2.05    0.12    0.28
  YS02001580YS02001583 CONDUIT    281.79     0  01:06      1.20    1.09    1.00
  YS02001583YS02001586 CONDUIT    303.83     0  01:05      1.32    0.46    1.00
  YS02001586YS02001590 CONDUIT    318.64     0  02:37      1.42    0.56    1.00
  YS02001590YS02001593 CONDUIT    318.30     0  01:52      1.13    2.00    1.00
  YS02001593YS02001596 CONDUIT    318.09     0  02:38      1.67    0.50    1.00
  YS02001596YS02001600 CONDUIT    318.09     0  02:38      1.24    0.62    1.00
  YS02001600YS02001601 CONDUIT    318.21     0  01:34      1.13    0.55    1.00
  YS02001601YS02001602 CONDUIT    619.90     0  01:06      2.19    2.24    1.00
  YS02001602YS02001605 CONDUIT    619.68     0  01:06      2.19   13.11    1.00
  YS02001605YS02001607 CONDUIT    619.36     0  01:06      2.19    3.40    1.00
  YS02001607YS02001610 CONDUIT    689.68     0  01:06      1.06    0.66    1.00
  YS02001610YS02001613 CONDUIT    619.36     0  01:26      0.88    0.71    1.00
  YS02001613YS02001616 CONDUIT    619.52     0  01:30      0.90    0.53    1.00
  YS02001616YS02001619 CONDUIT    619.46     0  01:26      0.94    1.08    1.00
  YS02001619YS02001622 CONDUIT   1053.86     0  01:25      2.18    1.55    1.00
  YS02001622YS02001625 CONDUIT   1053.71     0  01:29      1.34    0.56    1.00
  YS02001625YS02001629 CONDUIT    735.86     0  01:06      1.11    0.35    1.00
  YS02001629YS02163301 CONDUIT    702.60     0  03:10      0.89    0.87    1.00
  YS02001633YS02163601 CONDUIT   1266.37     0  01:07      1.61    1.33    1.00
  YS02001641YS02001644 CONDUIT   1248.86     0  01:08      1.59    4.04    1.00
  YS02001644YS02001647 CONDUIT   1879.68     0  01:08      2.39    1.10    1.00
  YS02001647YS02001649 CONDUIT   1880.42     0  01:08      2.39    0.99    1.00
  YS02001649YS02001757 CONDUIT   2174.29     0  01:08      2.77    1.32    1.00
  YS02001652YS02001649 CONDUIT    935.22     0  01:10      1.68    0.46    1.00
  YS02001655YS02001652 CONDUIT    935.06     0  01:10      2.13    0.45    1.00
  YS02001658YS02001655 CONDUIT    934.70     0  01:10      2.30    0.40    1.00
  YS02001661YS02001658 CONDUIT    934.53     0  01:10      2.58    0.37    1.00
  YS02001664YS02001661 CONDUIT    927.87     0  01:25      2.55    0.29    0.87
  YS02001745YS02001748 CONDUIT    660.01     0  01:10      2.48    0.25    1.00
  YS02001748YS02001751 CONDUIT    664.03     0  01:10      2.02    0.34    1.00
  YS02001751YS02001754 CONDUIT    666.11     0  01:10      1.99    0.32    1.00
  YS02001754YS02001757 CONDUIT    668.49     0  01:10      1.36    0.27    1.00
  YS02001757CaochengTiaoxuchi CONDUIT   3560.22     0  01:10      5.08    1.54    1.00
  YS02001759YS02001757 CONDUIT   1449.05     0  01:09      1.84    1.03    1.00
  YS02001762YS02001759 CONDUIT    783.51     0  01:09      1.00    0.90    1.00
  YS02001765YS02001762 CONDUIT    785.31     0  01:09      1.00    0.74    1.00
  YS02001767YS02001765 CONDUIT    786.49     0  01:09      1.01    0.99    1.00
  YS02001770YS02001767 CONDUIT    784.88     0  01:09      1.10    3.11    1.00
  YS02001774YS02001770 CONDUIT    630.30     0  01:08      0.95    0.40    1.00
  YS02001779YS02001774 CONDUIT    638.81     0  01:08      0.84    0.32    1.00
  YS02001783YS02001784 CONDUIT   1162.04     0  01:08      2.31    1.60    1.00
  YS02001784YS02001785 CONDUIT   1162.95     0  01:08      2.31    2.71    1.00
  YS02001786YS02001788 CONDUIT   1163.15     0  01:08      2.49    2.24    0.89
  YS02001788YS02001790 CONDUIT   1182.92     0  01:08      2.76    0.87    0.84
  YS02001790YS02001791 CONDUIT   1294.89     0  01:23      3.44    1.41    0.71
  YS02001791YS02001793 CONDUIT   1256.13     0  01:19      6.72    0.54    0.44
  YS02001793JiankangQianchi CONDUIT   1261.65     0  01:35      2.49    0.10    0.64
  YS02001882YS02001884 CONDUIT    120.93     0  01:07      0.57    0.14    1.00
  YS02001884YS02001887 CONDUIT    239.34     0  01:06      0.55    0.32    1.00
  YS02001887YS02001890 CONDUIT    783.92     0  01:24      1.00    1.34    1.00
  YS02001890YS02001895 CONDUIT    623.60     0  01:07      0.79    0.29    1.00
  YS02001895YS02001898 CONDUIT    621.76     0  01:07      0.92    1.08    1.00
  YS02001898YS02001901 CONDUIT    617.91     0  01:07      0.79    0.40    1.00
  YS02001901YS02001904 CONDUIT    614.10     0  01:07      0.90    0.95    1.00
  YS02001904YS02001907 CONDUIT    611.30     0  01:07      0.78    0.21    1.00
  YS02001907YS02006553 CONDUIT    810.71     0  03:05      0.90    0.95    1.00
  YS02001910YS02001907 CONDUIT   1653.55     0  01:25      2.11    0.93    1.00
  YS02001915YS02001910 CONDUIT   1653.51     0  01:25      2.11    0.82    1.00
  YS02001918YS02001915 CONDUIT    923.87     0  01:07      1.18    0.51    1.00
  YS02001920YS02001918 CONDUIT    883.87     0  01:07      1.13    0.85    1.00
  YS02001923YS02001920 CONDUIT    857.30     0  01:07      1.12    0.38    1.00
  YS02001926YS02001923 CONDUIT   1118.53     0  01:08      1.55    1.60    1.00
  YS02001929YS02001926 CONDUIT    924.36     0  01:08      1.26    0.44    1.00
  YS02006553YS02006556 CONDUIT    809.39     0  03:03      1.03    0.69    1.00
  YS02006556YS02006558 CONDUIT    811.63     0  03:03      1.03    0.64    1.00
  YS02006558YS02006561 CONDUIT   1187.47     0  01:07      4.20    2.62    1.00
  YS02006561YS02001783 CONDUIT   1161.88     0  01:08      2.31    0.60    1.00
  YS02163301YS02001633 CONDUIT    703.60     0  03:10      0.90    0.66    1.00
  YS02163601YS02164001 CONDUIT   1263.24     0  01:07      1.61    1.12    1.00
  YS02164001YS02001641 CONDUIT   1250.98     0  01:07      1.59    1.71    1.00
  CC-R1                PUMP       683.00     0  00:00              1.00
  CC-R2                PUMP       683.00     0  00:00              1.00
  CC-S1                PUMP       200.00     0  00:00              1.00
  CC-S2                PUMP       200.00     0  00:00              1.00
  JK-R1                PUMP      1000.00     0  00:00              1.00
  JK-R2                PUMP      1000.00     0  00:00              1.00
  JK-S                 PUMP       300.00     0  00:00              1.00
  
  
  ***************************
  Flow Classification Summary
  ***************************
  
  -------------------------------------------------------------------------------------
                      Adjusted    ---------- Fraction of Time in Flow Class ---------- 
                       /Actual         Up    Down  Sub   Sup   Up    Down  Norm  Inlet 
  Conduit               Length    Dry  Dry   Dry   Crit  Crit  Crit  Crit  Ltd   Ctrl  
  -------------------------------------------------------------------------------------
  1                       1.00   0.00  0.00  0.00  0.00  1.00  0.00  0.00  0.49  0.00
  WS02003060WS02003069    1.00   0.00  0.00  0.00  0.97  0.03  0.00  0.00  0.60  0.00
  WS02003066WSF200        1.00   0.06  0.00  0.00  0.00  0.94  0.00  0.00  0.84  0.00
  WS02003067WS02003066    1.00   0.05  0.00  0.00  0.94  0.00  0.00  0.00  0.00  0.00
  WS02003069WS02003072    1.00   0.00  0.00  0.00  0.99  0.01  0.00  0.00  0.62  0.00
  WS02003072WS02003073    1.00   0.00  0.00  0.00  0.00  0.00  0.00  1.00  0.00  0.00
  WS02004401WS02004402    1.00   0.02  0.00  0.00  0.98  0.00  0.00  0.00  0.00  0.00
  WS02004402WS02004403    1.00   0.02  0.00  0.00  0.97  0.00  0.00  0.00  0.00  0.00
  WS02004403WS02004404    1.00   0.00  0.03  0.00  0.97  0.00  0.00  0.00  0.00  0.00
  WS02004404WS02004405    1.00   0.00  0.00  0.00  1.00  0.00  0.00  0.00  0.01  0.00
  WS02004405WS02004406    1.00   0.00  0.00  0.00  1.00  0.00  0.00  0.00  0.00  0.00
  WS02004406WS02004407    1.00   0.00  0.04  0.00  0.96  0.00  0.00  0.00  0.00  0.00
  WS02004407WS02004409    1.00   0.04  0.00  0.00  0.95  0.01  0.00  0.00  0.95  0.00
  WS02004409WS02004410    1.00   0.04  0.00  0.00  0.96  0.00  0.00  0.00  0.00  0.00
  WS02004410WS02004411    1.00   0.04  0.00  0.00  0.96  0.00  0.00  0.00  0.00  0.00
  WS02004411WS02004412    1.00   0.04  0.00  0.00  0.96  0.00  0.00  0.00  0.00  0.00
  WS02004412WS02004413    1.00   0.04  0.00  0.00  0.95  0.00  0.00  0.00  0.00  0.00
  WS02004413WS02003067    1.00   0.04  0.01  0.00  0.00  0.00  0.95  0.00  0.00  0.00
  WS02006109WS02006110    1.00   0.00  0.01  0.00  0.98  0.00  0.01  0.00  0.00  0.00
  WS02006110WS02006113    1.00   0.01  0.01  0.00  0.98  0.00  0.00  0.00  0.00  0.00
  WS02006111WS02006112    1.00   0.02  0.00  0.00  0.98  0.00  0.00  0.00  0.98  0.00
  WS02006112WS02006115    1.00   0.02  0.00  0.00  0.97  0.00  0.00  0.00  0.00  0.00
  WS02006113WS02006111    1.00   0.02  0.00  0.00  0.00  0.98  0.00  0.00  0.15  0.00
  WS02006115WS02006116    1.00   0.02  0.00  0.00  0.97  0.00  0.00  0.01  0.00  0.00
  WS02006116WS02004401    1.00   0.02  0.00  0.00  0.98  0.00  0.00  0.00  0.00  0.00
  WS02006228WS02006109    1.00   0.00  0.00  0.00  1.00  0.00  0.00  0.00  0.00  0.00
  WS02006229WS02006228    1.00   0.00  0.00  0.00  0.99  0.00  0.00  0.01  0.00  0.00
  WS02006230WS02006229    1.00   0.00  0.00  0.00  0.99  0.00  0.00  0.01  0.03  0.00
  WS02006231WS02006230    1.00   0.00  0.00  0.00  0.37  0.00  0.62  0.00  0.00  0.00
  WS02006232WS02006231    1.00   0.00  0.00  0.00  0.99  0.00  0.01  0.00  0.00  0.00
  WS02006234WS02006232    1.00   0.00  0.00  0.00  1.00  0.00  0.00  0.00  0.18  0.00
  WS02006235WS02006234    1.00   0.00  0.00  0.00  0.67  0.00  0.33  0.00  0.00  0.00
  WS02006238WS02006235    1.00   0.00  0.00  0.00  1.00  0.00  0.00  0.00  0.00  0.00
  WS02006239WS02006238    1.00   0.00  0.00  0.00  1.00  0.00  0.00  0.00  0.26  0.00
  WS02006240WS02006239    1.00   0.00  0.00  0.00  0.54  0.00  0.00  0.46  0.01  0.00
  WS02006242WS02006240    1.00   0.00  0.00  0.00  1.00  0.00  0.00  0.00  0.00  0.00
  WS02006243WS02006242    1.00   0.00  0.00  0.00  0.99  0.00  0.00  0.00  0.53  0.00
  WS02006245WS02006243    1.00   0.00  0.00  0.00  0.79  0.00  0.00  0.21  0.00  0.00
  WS02006247WS02006245    1.00   0.00  0.00  0.00  0.99  0.00  0.00  0.01  0.00  0.00
  WS02006248WS02006247    1.00   0.00  0.00  0.00  0.99  0.00  0.00  0.01  0.48  0.00
  WS02006249WS02006248    1.00   0.00  0.00  0.00  0.46  0.00  0.54  0.00  0.00  0.00
  WS02006251WS02006249    1.00   0.00  0.00  0.00  1.00  0.00  0.00  0.00  0.49  0.00
  WS02006252WS02006251    1.00   0.00  0.50  0.00  0.12  0.00  0.39  0.00  0.00  0.00
  WS02006256WS02006235    1.00   0.00  0.00  0.00  1.00  0.00  0.00  0.00  0.00  0.00
  WSF200WS02003060        1.00   0.00  0.06  0.00  0.41  0.53  0.00  0.00  0.53  0.00
  YS02001580YS02001583    1.00   0.14  0.49  0.00  0.37  0.00  0.00  0.00  0.59  0.00
  YS02001583YS02001586    1.00   0.36  0.21  0.00  0.42  0.00  0.00  0.00  0.59  0.00
  YS02001586YS02001590    1.00   0.13  0.00  0.00  0.52  0.03  0.00  0.32  0.27  0.00
  YS02001590YS02001593    1.00   0.13  0.00  0.00  0.28  0.00  0.59  0.00  0.00  0.00
  YS02001593YS02001596    1.00   0.13  0.00  0.00  0.29  0.01  0.00  0.57  0.01  0.00
  YS02001596YS02001600    1.00   0.13  0.00  0.00  0.33  0.01  0.00  0.54  0.02  0.00
  YS02001600YS02001601    1.00   0.13  0.00  0.00  0.87  0.00  0.00  0.00  0.52  0.00
  YS02001601YS02001602    1.00   0.13  0.00  0.00  0.87  0.00  0.00  0.00  0.00  0.00
  YS02001602YS02001605    1.00   0.13  0.00  0.00  0.87  0.00  0.00  0.00  0.00  0.00
  YS02001605YS02001607    1.00   0.13  0.00  0.00  0.87  0.00  0.00  0.00  0.00  0.00
  YS02001607YS02001610    1.00   0.13  0.00  0.00  0.87  0.00  0.00  0.00  0.00  0.00
  YS02001610YS02001613    1.00   0.13  0.00  0.00  0.87  0.00  0.00  0.00  0.00  0.00
  YS02001613YS02001616    1.00   0.13  0.00  0.00  0.87  0.00  0.00  0.00  0.00  0.00
  YS02001616YS02001619    1.00   0.13  0.00  0.00  0.87  0.00  0.00  0.00  0.00  0.00
  YS02001619YS02001622    1.00   0.13  0.00  0.00  0.87  0.00  0.00  0.00  0.24  0.00
  YS02001622YS02001625    1.00   0.13  0.00  0.00  0.87  0.00  0.00  0.00  0.00  0.00
  YS02001625YS02001629    1.00   0.13  0.01  0.00  0.33  0.00  0.54  0.00  0.00  0.00
  YS02001629YS02163301    1.00   0.13  0.00  0.00  0.87  0.00  0.00  0.00  0.00  0.00
  YS02001633YS02163601    1.00   0.00  0.01  0.00  0.99  0.00  0.00  0.00  0.12  0.00
  YS02001641YS02001644    1.00   0.00  0.01  0.00  0.99  0.00  0.00  0.00  0.00  0.00
  YS02001644YS02001647    1.00   0.00  0.13  0.00  0.87  0.00  0.00  0.00  0.00  0.00
  YS02001647YS02001649    1.00   0.00  0.13  0.00  0.65  0.22  0.00  0.00  0.52  0.00
  YS02001649YS02001757    1.00   0.00  0.00  0.00  0.77  0.23  0.00  0.00  0.32  0.00
  YS02001652YS02001649    1.00   0.00  0.00  0.00  1.00  0.00  0.00  0.00  0.62  0.00
  YS02001655YS02001652    1.00   0.00  0.00  0.00  0.35  0.00  0.00  0.64  0.02  0.00
  YS02001658YS02001655    1.00   0.00  0.13  0.00  0.84  0.04  0.00  0.00  0.55  0.00
  YS02001661YS02001658    1.00   0.13  0.00  0.00  0.69  0.18  0.00  0.00  0.57  0.00
  YS02001664YS02001661    1.00   0.13  0.00  0.00  0.86  0.02  0.00  0.00  0.62  0.00
  YS02001745YS02001748    1.00   0.00  0.00  0.00  0.31  0.00  0.00  0.69  0.03  0.00
  YS02001748YS02001751    1.00   0.00  0.00  0.00  0.98  0.02  0.00  0.00  0.66  0.00
  YS02001751YS02001754    1.00   0.00  0.00  0.00  0.35  0.00  0.00  0.65  0.02  0.00
  YS02001754YS02001757    1.00   0.00  0.00  0.00  1.00  0.00  0.00  0.00  0.64  0.00
  YS02001757CaochengTiaoxuchi    1.00   0.00  0.00  0.00  0.98  0.02  0.00  0.00  0.62  0.00
  YS02001759YS02001757    1.00   0.00  0.00  0.00  0.99  0.01  0.00  0.00  0.56  0.00
  YS02001762YS02001759    1.00   0.00  0.00  0.00  1.00  0.00  0.00  0.00  0.01  0.00
  YS02001765YS02001762    1.00   0.00  0.00  0.00  1.00  0.00  0.00  0.00  0.61  0.00
  YS02001767YS02001765    1.00   0.00  0.00  0.00  1.00  0.00  0.00  0.00  0.00  0.00
  YS02001770YS02001767    1.00   0.00  0.00  0.00  1.00  0.00  0.00  0.00  0.00  0.00
  YS02001774YS02001770    1.00   0.00  0.12  0.00  0.74  0.00  0.14  0.00  0.00  0.00
  YS02001779YS02001774    1.00   0.00  0.00  0.00  1.00  0.00  0.00  0.00  0.63  0.00
  YS02001783YS02001784    1.00   0.00  0.13  0.00  0.87  0.00  0.00  0.00  0.52  0.00
  YS02001784YS02001785    1.00   0.00  0.00  0.00  1.00  0.00  0.00  0.00  0.12  0.00
  YS02001786YS02001788    1.00   0.00  0.00  0.00  0.89  0.11  0.00  0.00  0.00  0.00
  YS02001788YS02001790    1.00   0.00  0.00  0.00  0.25  0.75  0.00  0.00  0.72  0.00
  YS02001790YS02001791    1.00   0.00  0.00  0.00  0.01  0.99  0.00  0.00  0.10  0.00
  YS02001791YS02001793    1.00   0.00  0.00  0.00  0.00  1.00  0.00  0.00  0.05  0.00
  YS02001793JiankangQianchi    1.00   0.00  0.00  0.00  0.95  0.05  0.00  0.00  0.76  0.00
  YS02001882YS02001884    1.00   0.13  0.00  0.00  0.87  0.00  0.00  0.00  0.00  0.00
  YS02001884YS02001887    1.00   0.06  0.05  0.00  0.89  0.00  0.00  0.00  0.00  0.00
  YS02001887YS02001890    1.00   0.00  0.00  0.00  0.97  0.00  0.03  0.00  0.00  0.00
  YS02001890YS02001895    1.00   0.00  0.13  0.00  0.87  0.00  0.00  0.00  0.00  0.00
  YS02001895YS02001898    1.00   0.13  0.00  0.00  0.86  0.00  0.00  0.00  0.00  0.00
  YS02001898YS02001901    1.00   0.13  0.00  0.00  0.87  0.00  0.00  0.00  0.00  0.00
  YS02001901YS02001904    1.00   0.13  0.00  0.00  0.87  0.00  0.00  0.00  0.00  0.00
  YS02001904YS02001907    1.00   0.00  0.13  0.00  0.87  0.00  0.00  0.00  0.00  0.00
  YS02001907YS02006553    1.00   0.00  0.02  0.00  0.98  0.00  0.00  0.00  0.00  0.00
  YS02001910YS02001907    1.00   0.00  0.00  0.00  0.97  0.00  0.00  0.03  0.10  0.00
  YS02001915YS02001910    1.00   0.00  0.00  0.00  0.98  0.02  0.00  0.00  0.10  0.00
  YS02001918YS02001915    1.00   0.00  0.01  0.00  0.98  0.02  0.00  0.00  0.61  0.00
  YS02001920YS02001918    1.00   0.00  0.01  0.00  0.99  0.00  0.00  0.00  0.00  0.00
  YS02001923YS02001920    1.00   0.00  0.00  0.00  1.00  0.00  0.00  0.00  0.75  0.00
  YS02001926YS02001923    1.00   0.00  0.07  0.00  0.25  0.00  0.68  0.00  0.00  0.00
  YS02001929YS02001926    1.00   0.00  0.13  0.00  0.87  0.00  0.00  0.00  0.62  0.00
  YS02006553YS02006556    1.00   0.01  0.00  0.00  0.99  0.00  0.00  0.00  0.03  0.00
  YS02006556YS02006558    1.00   0.00  0.00  0.00  1.00  0.00  0.00  0.00  0.00  0.00
  YS02006558YS02006561    1.00   0.13  0.00  0.00  0.24  0.62  0.00  0.00  0.12  0.00
  YS02006561YS02001783    1.00   0.13  0.00  0.00  0.26  0.61  0.00  0.00  0.59  0.00
  YS02163301YS02001633    1.00   0.00  0.13  0.00  0.87  0.00  0.00  0.00  0.00  0.00
  YS02163601YS02164001    1.00   0.00  0.08  0.00  0.92  0.00  0.00  0.00  0.00  0.00
  YS02164001YS02001641    1.00   0.01  0.07  0.00  0.92  0.00  0.00  0.00  0.05  0.00
  
  
  *************************
  Conduit Surcharge Summary
  *************************
  
  ----------------------------------------------------------------------------
                                                           Hours        Hours 
                         --------- Hours Full --------   Above Full   Capacity
  Conduit                Both Ends  Upstream  Dnstream   Normal Flow   Limited
  ----------------------------------------------------------------------------
  WS02003072WS02003073        0.01      0.01      0.01      1.62         0.01
  WS02004404WS02004405        0.01      0.01      0.01      3.62         0.01
  WS02004405WS02004406        0.01      0.01      0.01      0.47         0.01
  WS02006109WS02006110        0.48      0.48      2.84      0.75         0.01
  WS02006110WS02006113        0.01      0.01      2.83      0.01         0.01
  WS02006111WS02006112        0.01      0.01      3.10      0.01         0.01
  WS02006112WS02006115        0.01      0.01      0.57      0.01         0.01
  WS02006228WS02006109        2.83      2.84      2.83      3.21         2.82
  WS02006229WS02006228        2.82      2.83      2.82      3.04         2.81
  WS02006230WS02006229        2.94      3.03      2.94      3.91         2.94
  WS02006231WS02006230        0.52      0.52      0.90      3.75         0.01
  WS02006232WS02006231        0.79      0.79      2.85      0.95         0.01
  WS02006234WS02006232        2.72      2.73      2.85      0.92         0.90
  WS02006235WS02006234        1.41      1.42      2.73      3.67         0.04
  WS02006238WS02006235        2.75      2.75      2.85      0.01         0.01
  WS02006239WS02006238        2.80      2.83      2.80      2.95         2.50
  WS02006240WS02006239        2.78      2.83      2.78      2.93         2.40
  WS02006242WS02006240        2.82      2.82      2.90      3.11         0.01
  WS02006243WS02006242        2.82      2.82      2.86      0.01         0.09
  WS02006245WS02006243        2.81      2.81      2.82      2.31         2.19
  WS02006247WS02006245        2.81      2.81      2.81      3.51         2.78
  WS02006248WS02006247        2.80      2.80      2.81      0.01         0.10
  WS02006249WS02006248        2.80      2.80      2.80      3.50         0.02
  WS02006251WS02006249        2.80      2.80      2.80      2.96         2.65
  WS02006252WS02006251        3.03      3.03      3.08      3.04         0.01
  WS02006256WS02006235        3.64      3.71      6.07      1.11         0.01
  YS02001580YS02001583        2.08      2.08      2.10      0.01         0.01
  YS02001583YS02001586        2.08      2.08      2.16      0.01         0.01
  YS02001586YS02001590        2.17      2.17      2.21      0.01         0.01
  YS02001590YS02001593        2.21      2.21      2.22      2.25         0.01
  YS02001593YS02001596        2.22      2.22      2.27      0.01         0.01
  YS02001596YS02001600        2.29      2.29      2.36      0.01         0.01
  YS02001600YS02001601        2.40      2.40      2.54      0.01         0.01
  YS02001601YS02001602        2.50      2.50      2.56      2.29         0.01
  YS02001602YS02001605        2.49      2.49      2.50      2.99         0.01
  YS02001605YS02001607        2.47      2.49      2.49      2.40         2.36
  YS02001607YS02001610        2.23      2.23      2.25      0.01         0.01
  YS02001610YS02001613        2.23      2.23      2.25      0.01         0.01
  YS02001613YS02001616        2.20      2.21      2.23      0.01         0.01
  YS02001616YS02001619        2.20      2.20      2.21      0.30         0.36
  YS02001619YS02001622        2.20      2.20      2.20      2.12         2.04
  YS02001622YS02001625        2.20      2.20      2.34      0.01         0.01
  YS02001625YS02001629        2.18      2.18      2.34      0.01         0.01
  YS02001629YS02163301        2.36      2.36      2.38      0.01         0.01
  YS02001633YS02163601        2.40      2.40      2.44      0.03         0.03
  YS02001641YS02001644        2.40      2.40      2.40      2.61         2.14
  YS02001644YS02001647        2.27      2.27      2.40      0.02         0.01
  YS02001647YS02001649        2.27      2.27      2.40      0.01         0.01
  YS02001649YS02001757        2.40      2.40      2.48      0.05         0.03
  YS02001652YS02001649        2.26      2.26      2.40      0.01         0.01
  YS02001655YS02001652        2.11      2.11      2.24      0.01         0.01
  YS02001658YS02001655        1.92      1.92      2.11      0.01         0.01
  YS02001661YS02001658        0.33      0.33      1.92      0.01         0.01
  YS02001664YS02001661        0.01      0.01      1.18      0.01         0.01
  YS02001745YS02001748        0.01      0.01      1.87      0.01         0.01
  YS02001748YS02001751        1.93      1.93      2.07      0.01         0.01
  YS02001751YS02001754        2.07      2.07      2.20      0.01         0.01
  YS02001754YS02001757        2.23      2.23      2.48      0.01         0.01
  YS02001757CaochengTiaoxuchi        2.31      2.48      2.74      0.93         0.76
  YS02001759YS02001757        2.41      2.41      2.48      0.09         0.10
  YS02001762YS02001759        2.38      2.38      2.41      0.01         0.02
  YS02001765YS02001762        2.34      2.34      2.38      0.01         0.01
  YS02001767YS02001765        2.31      2.31      2.34      0.01         0.02
  YS02001770YS02001767        2.31      2.31      2.31      1.99         1.81
  YS02001774YS02001770        2.29      2.29      2.36      0.01         0.01
  YS02001779YS02001774        2.19      2.19      2.36      0.01         0.01
  YS02001783YS02001784        2.00      2.01      2.00      2.07         2.00
  YS02001784YS02001785        1.94      2.00      1.94      2.13         1.94
  YS02001786YS02001788        0.01      1.94      0.01      2.10         0.01
  YS02001790YS02001791        0.01      0.01      0.01      1.99         0.01
  YS02001793JiankangQianchi        0.01      0.01      7.17      0.01         0.01
  YS02001882YS02001884        1.98      1.98      1.99      0.01         0.01
  YS02001884YS02001887        2.00      2.00      2.01      0.01         0.01
  YS02001887YS02001890        2.01      2.01      2.02      0.69         0.01
  YS02001890YS02001895        1.97      1.97      2.02      0.01         0.01
  YS02001895YS02001898        1.97      1.97      1.97      0.01         0.01
  YS02001898YS02001901        1.97      1.97      2.00      0.01         0.01
  YS02001901YS02001904        1.99      1.99      2.00      0.01         0.01
  YS02001904YS02001907        1.99      1.99      2.10      0.01         0.01
  YS02001907YS02006553        2.14      2.14      2.16      0.01         0.01
  YS02001910YS02001907        2.02      2.02      2.09      0.01         0.01
  YS02001915YS02001910        1.98      1.98      2.02      0.01         0.01
  YS02001918YS02001915        1.93      1.93      1.98      0.01         0.01
  YS02001920YS02001918        1.93      1.93      1.94      0.01         0.01
  YS02001923YS02001920        1.90      1.90      1.94      0.01         0.01
  YS02001926YS02001923        0.67      0.67      0.76      0.01         0.01
  YS02001929YS02001926        0.01      0.01      0.76      0.01         0.01
  YS02006553YS02006556        2.06      2.06      2.10      0.01         0.01
  YS02006556YS02006558        2.08      2.08      2.10      0.01         0.01
  YS02006558YS02006561        1.95      2.05      1.95      2.12         1.95
  YS02006561YS02001783        1.91      1.91      2.01      0.01         0.01
  YS02163301YS02001633        2.38      2.38      2.41      0.01         0.01
  YS02163601YS02164001        2.39      2.39      2.44      0.02         0.01
  YS02164001YS02001641        2.39      2.39      2.40      0.19         0.25
  
  
  ***************
  Pumping Summary
  ***************
  
  ---------------------------------------------------------------------------------------------------------
                                                  Min       Avg       Max     Total     Power    % Time Off
                        Percent   Number of      Flow      Flow      Flow    Volume     Usage    Pump Curve
  Pump                 Utilized   Start-Ups       LPS       LPS       LPS  10^6 ltr     Kw-hr    Low   High
  ---------------------------------------------------------------------------------------------------------
  CC-R1                   41.79          31      0.00    683.00    683.00     8.219    160.53    0.0   59.6
  CC-R2                   41.37          32      0.00    683.00    683.00     8.139    159.26    0.0   59.2
  CC-S1                   44.96          30      0.00    200.00    200.00     2.590     12.05    0.0   38.6
  CC-S2                   37.94           4      0.00    200.00    200.00     2.185      9.35    0.0   45.7
  JK-R1                    1.15           5      0.00   1000.00   1000.00     0.332      3.85    0.0    0.0
  JK-R2                   26.89          37      0.00   1000.00   1000.00     7.744     91.86    0.0    0.0
  JK-S                    13.89          31      0.00    300.00    300.00     1.200     15.81    0.0    0.0
  

  Analysis begun on:  Thu Feb 27 17:17:35 2025
  Analysis ended on:  Thu Feb 27 17:17:37 2025
  Total elapsed time: 00:00:02