
  EPA STORM WATER MANAGEMENT MODEL - VERSION 5.2 (Build 5.2.4)
  PYSWMM TOOLKIT API - VERSION v1.0 (2023-11-27)
  ------------------------------------------------------------

  WARNING 04: minimum elevation drop used for Conduit WS02004404WS02004405
  WARNING 03: negative offset ignored for Link YS02001904YS02001907
  
  ****************
  Analysis Options
  ****************
  Flow Units ............... LPS
  Process Models:
    Rainfall/Runoff ........ YES
    RDII ................... NO
    Snowmelt ............... NO
    Groundwater ............ NO
    Flow Routing ........... YES
    Ponding Allowed ........ NO
    Water Quality .......... NO
  Infiltration Method ...... HORTON
  Flow Routing Method ...... DYNWAVE
  Surcharge Method ......... EXTRAN
  Starting Date ............ 08/28/2015 08:00:00
  Ending Date .............. 08/28/2015 16:00:00
  Antecedent Dry Days ...... 8.0
  Report Time Step ......... 00:01:00
  Wet Time Step ............ 00:01:00
  Dry Time Step ............ 00:01:00
  Routing Time Step ........ 30.00 sec
  Variable Time Step ....... YES
  Maximum Trials ........... 8
  Number of Threads ........ 4
  Head Tolerance ........... 0.001500 m
  
  
  **************************        Volume         Depth
  Runoff Quantity Continuity     hectare-m            mm
  **************************     ---------       -------
  Total Precipitation ......         1.912        57.643
  Evaporation Loss .........         0.000         0.000
  Infiltration Loss ........         0.097         2.930
  Surface Runoff ...........         1.782        53.734
  Final Storage ............         0.033         0.993
  Continuity Error (%) .....        -0.026
  
  
  **************************        Volume        Volume
  Flow Routing Continuity        hectare-m      10^6 ltr
  **************************     ---------     ---------
  Dry Weather Inflow .......         0.025         0.251
  Wet Weather Inflow .......         1.782        17.821
  Groundwater Inflow .......         0.000         0.000
  RDII Inflow ..............         0.000         0.000
  External Inflow ..........         0.083         0.834
  External Outflow .........         1.593        15.927
  Flooding Loss ............         0.368         3.678
  Evaporation Loss .........         0.000         0.000
  Exfiltration Loss ........         0.000         0.000
  Initial Stored Volume ....         0.243         2.431
  Final Stored Volume ......         0.182         1.818
  Continuity Error (%) .....        -0.403
  
  
  *************************
  Highest Continuity Errors
  *************************
  Node YS02001583 (-13.54%)
  Node YS02001884 (5.07%)
  Node WS02006256 (-1.38%)
  Node YS02001774 (1.10%)
  
  
  ***************************
  Time-Step Critical Elements
  ***************************
  Link WS02006252WS02006251 (31.75%)
  Link WS02004404WS02004405 (23.39%)
  Link WS02006238WS02006235 (12.88%)
  Link YS02001791YS02001793 (7.20%)
  Link YS02006556YS02006558 (6.20%)
  
  
  ********************************
  Highest Flow Instability Indexes
  ********************************
  Link WS02006113WS02006111 (33)
  Link WS02006111WS02006112 (15)
  Link WS02006256WS02006235 (13)
  Link WS02006252WS02006251 (12)
  Link YS02001882YS02001884 (12)
  
  
  *********************************
  Most Frequent Nonconverging Nodes
  *********************************
  Node CC-1 (12.53%)
  Node CC-2 (12.53%)
  Node JK-1 (12.53%)
  Node JK-2 (12.53%)
  Node WSC (12.53%)
  
  
  *************************
  Routing Time Step Summary
  *************************
  Minimum Time Step           :     0.00 sec
  Average Time Step           :     2.78 sec
  Maximum Time Step           :     6.43 sec
  % of Time in Steady State   :     0.00
  Average Iterations per Step :     3.16
  % of Steps Not Converging   :    12.53
  Time Step Frequencies       :
     30.000 - 13.228 sec      :     0.00 %
     13.228 -  5.833 sec      :    19.76 %
      5.833 -  2.572 sec      :    21.80 %
      2.572 -  1.134 sec      :    21.85 %
      1.134 -  0.500 sec      :    36.58 %
  
  
  ***************************
  Subcatchment Runoff Summary
  ***************************
  
  ------------------------------------------------------------------------------------------------------------------------------
                            Total      Total      Total      Total     Imperv       Perv      Total       Total     Peak  Runoff
                           Precip      Runon       Evap      Infil     Runoff     Runoff     Runoff      Runoff   Runoff   Coeff
  Subcatchment                 mm         mm         mm         mm         mm         mm         mm    10^6 ltr      LPS
  ------------------------------------------------------------------------------------------------------------------------------
  sub60                     57.64       0.00       0.00       1.80      49.52       5.12      54.65        0.72   443.23   0.948
  sub61                     57.64       0.00       0.00       2.60      46.71       7.21      53.92        0.99   609.19   0.935
  sub62                     57.64       0.00       0.00       1.20      51.75       3.42      55.16        1.51   853.12   0.957
  sub63                     57.64       0.00       0.00       4.74      39.96      11.98      51.94        1.18   656.37   0.901
  sub64                     57.64       0.00       0.00       2.40      47.79       6.24      54.04        1.30   676.36   0.937
  sub65                     57.64       0.00       0.00       2.08      48.90       5.41      54.31        1.50   754.26   0.942
  sub66                     57.64       0.00       0.00       5.78      39.85      10.94      50.79        2.37   947.79   0.881
  sub67                     57.64       0.00       0.00       1.16      51.79       3.46      55.24        1.03   678.69   0.958
  sub68                     57.64       0.00       0.00       2.15      48.39       5.92      54.31        1.49   870.51   0.942
  sub69                     57.64       0.00       0.00       1.89      48.89       6.76      55.65        2.06  1016.28   0.965
  sub70                     57.64       0.00       0.00       6.16      37.88      13.43      51.32        1.48   537.61   0.890
  sub71                     57.64       0.00       0.00       1.22      51.71       3.39      55.10        1.44   736.82   0.956
  sub72                     57.64       0.00       0.00       1.09      52.21       2.95      55.16        0.76   349.99   0.957
  
  
  ******************
  Node Depth Summary
  ******************
  
  ---------------------------------------------------------------------------------
                                 Average  Maximum  Maximum  Time of Max    Reported
                                   Depth    Depth      HGL   Occurrence   Max Depth
  Node                 Type       Meters   Meters   Meters  days hr:min      Meters
  ---------------------------------------------------------------------------------
  WS02003060           JUNCTION     0.20     0.37     5.31     0  02:54        0.37
  WS02003066           JUNCTION     0.17     0.29     5.84     0  02:53        0.29
  WS02003067           JUNCTION     0.45     0.69     6.01     0  02:53        0.69
  WS02003069           JUNCTION     0.22     0.42     5.00     0  02:54        0.42
  WS02003072           JUNCTION     0.28     0.49     4.86     0  02:55        0.49
  WS02003073           JUNCTION     0.15     0.29     4.35     0  02:56        0.29
  WS02004401           JUNCTION     0.52     0.84     6.84     0  02:51        0.84
  WS02004402           JUNCTION     0.55     0.87     6.83     0  02:51        0.86
  WS02004403           JUNCTION     0.57     0.88     6.81     0  02:51        0.88
  WS02004404           JUNCTION     0.65     0.95     6.80     0  02:51        0.95
  WS02004405           JUNCTION     0.65     0.95     6.80     0  02:51        0.94
  WS02004406           JUNCTION     0.66     0.95     6.78     0  02:51        0.95
  WS02004407           JUNCTION     0.14     0.29     6.60     0  02:52        0.29
  WS02004409           JUNCTION     0.32     0.65     6.42     0  02:52        0.64
  WS02004410           JUNCTION     0.35     0.66     6.38     0  02:52        0.66
  WS02004411           JUNCTION     0.37     0.67     6.35     0  02:53        0.67
  WS02004412           JUNCTION     0.40     0.68     6.32     0  02:53        0.68
  WS02004413           JUNCTION     0.55     0.84     6.31     0  02:53        0.84
  WS02006109           JUNCTION     0.57     1.21     7.83     0  02:04        1.02
  WS02006110           JUNCTION     0.58     1.32     7.90     0  02:04        1.02
  WS02006111           JUNCTION     0.14     0.29     6.99     0  02:33        0.29
  WS02006112           JUNCTION     0.67     1.04     6.92     0  02:50        1.03
  WS02006113           JUNCTION     0.22     0.46     7.35     0  02:32        0.46
  WS02006115           JUNCTION     0.40     0.74     6.88     0  02:50        0.73
  WS02006116           JUNCTION     0.49     0.82     6.86     0  02:50        0.82
  WS02006228           JUNCTION     0.55     1.18     7.83     0  02:03        1.04
  WS02006229           JUNCTION     0.52     1.23     7.92     0  02:03        1.04
  WS02006230           JUNCTION     0.51     1.41     8.16     0  02:03        1.18
  WS02006231           JUNCTION     0.33     1.12     8.24     0  02:03        0.94
  WS02006232           JUNCTION     0.45     1.26     8.30     0  02:03        1.16
  WS02006234           JUNCTION     0.36     1.26     8.42     0  02:03        1.20
  WS02006235           JUNCTION     0.40     1.36     8.52     0  02:03        1.31
  WS02006238           JUNCTION     0.43     1.40     8.54     0  02:03        1.34
  WS02006239           JUNCTION     0.40     1.39     8.60     0  02:03        1.34
  WS02006240           JUNCTION     0.38     1.35     8.64     0  02:03        1.30
  WS02006242           JUNCTION     0.44     1.40     8.67     0  02:03        1.37
  WS02006243           JUNCTION     0.36     1.26     8.68     0  02:03        1.24
  WS02006245           JUNCTION     0.37     1.21     8.70     0  02:03        1.20
  WS02006247           JUNCTION     0.39     1.20     8.70     0  02:03        1.19
  WS02006248           JUNCTION     0.35     1.10     8.69     0  02:03        1.10
  WS02006249           JUNCTION     0.38     1.09     8.69     0  01:49        1.09
  WS02006251           JUNCTION     0.38     1.39     9.06     0  01:49        1.13
  WS02006252           JUNCTION     0.28     1.50     9.74     0  00:00        0.85
  WS02006256           JUNCTION     0.71     2.35     9.28     0  00:00        2.35
  WSF200               JUNCTION     0.13     0.28     5.52     0  02:53        0.28
  YS02001580           JUNCTION     0.14     1.05     9.59     0  01:36        0.77
  YS02001583           JUNCTION     0.18     1.14     9.64     0  01:36        0.96
  YS02001586           JUNCTION     0.28     1.13     9.30     0  01:35        1.13
  YS02001590           JUNCTION     0.40     1.40     9.26     0  01:35        1.40
  YS02001593           JUNCTION     0.32     1.39     9.25     0  01:35        1.28
  YS02001596           JUNCTION     0.43     1.80     9.22     0  02:01        1.80
  YS02001600           JUNCTION     0.52     1.87     9.00     0  01:35        1.87
  YS02001601           JUNCTION     0.73     2.06     8.90     0  01:35        2.06
  YS02001602           JUNCTION     0.63     1.87     8.77     0  01:36        1.87
  YS02001605           JUNCTION     0.58     1.78     8.68     0  01:36        1.78
  YS02001607           JUNCTION     0.55     1.68     8.53     0  01:36        1.68
  YS02001610           JUNCTION     0.59     1.68     8.48     0  01:36        1.68
  YS02001613           JUNCTION     0.55     1.70     8.54     0  01:36        1.70
  YS02001616           JUNCTION     0.48     1.61     8.52     0  01:36        1.59
  YS02001619           JUNCTION     0.46     1.61     8.54     0  01:36        1.58
  YS02001622           JUNCTION     0.45     1.62     8.52     0  01:36        1.56
  YS02001625           JUNCTION     0.70     1.78     8.38     0  01:36        1.78
  YS02001629           JUNCTION     0.60     1.85     8.40     0  01:36        1.85
  YS02001633           JUNCTION     0.67     2.08     8.53     0  02:01        2.08
  YS02001641           JUNCTION     0.63     2.05     8.49     0  01:48        1.94
  YS02001644           JUNCTION     0.62     1.92     8.35     0  01:38        1.92
  YS02001647           JUNCTION     0.39     1.84     8.45     0  01:38        1.72
  YS02001649           JUNCTION     0.44     2.05     8.44     0  01:38        2.05
  YS02001652           JUNCTION     0.31     2.16     8.76     0  01:38        1.79
  YS02001655           JUNCTION     0.23     2.20     9.05     0  01:38        1.52
  YS02001658           JUNCTION     0.17     2.30     9.44     0  01:39        1.29
  YS02001661           JUNCTION     0.18     2.15     9.55     0  01:39        1.07
  YS02001664           JUNCTION     0.08     0.65     8.57     0  01:39        0.56
  YS02001745           JUNCTION     0.09     1.49     9.01     0  01:39        0.84
  YS02001748           JUNCTION     0.15     2.27     9.35     0  01:38        1.05
  YS02001751           JUNCTION     0.19     2.20     9.08     0  01:38        1.23
  YS02001754           JUNCTION     0.25     2.20     8.81     0  01:38        1.51
  YS02001757           JUNCTION     0.44     2.21     8.47     0  01:48        2.21
  YS02001759           JUNCTION     0.38     2.21     8.57     0  01:48        2.21
  YS02001762           JUNCTION     0.37     2.15     8.55     0  01:39        1.91
  YS02001765           JUNCTION     0.34     2.10     8.55     0  01:39        2.10
  YS02001767           JUNCTION     0.34     2.03     8.52     0  01:37        2.03
  YS02001770           JUNCTION     0.36     1.95     8.44     0  01:37        1.95
  YS02001774           JUNCTION     0.42     2.05     8.47     0  01:37        2.05
  YS02001779           JUNCTION     0.24     1.68     8.37     0  01:38        1.68
  YS02001783           JUNCTION     0.34     1.66     7.80     0  01:48        1.66
  YS02001784           JUNCTION     0.34     1.47     7.54     0  01:48        1.11
  YS02001786           JUNCTION     0.28     1.53     7.56     0  01:37        0.87
  YS02001788           JUNCTION     0.21     0.62     6.60     0  01:37        0.62
  YS02001790           JUNCTION     0.24     0.72     6.36     0  01:41        0.71
  YS02001791           JUNCTION     0.15     0.44     5.91     0  01:39        0.43
  YS02001793           JUNCTION     0.08     0.27     5.10     0  01:50        0.27
  YS02001882           JUNCTION     0.42     1.83     8.55     0  01:36        1.64
  YS02001884           JUNCTION     0.50     1.86     8.48     0  01:36        1.74
  YS02001887           JUNCTION     0.58     1.88     8.42     0  01:36        1.82
  YS02001890           JUNCTION     0.61     1.81     8.32     0  01:36        1.81
  YS02001895           JUNCTION     0.39     1.75     8.50     0  01:36        1.56
  YS02001898           JUNCTION     0.39     1.77     8.51     0  01:36        1.56
  YS02001901           JUNCTION     0.50     1.87     8.48     0  01:48        1.87
  YS02001904           JUNCTION     0.48     1.85     8.48     0  02:01        1.85
  YS02001907           JUNCTION     0.79     1.96     8.25     0  01:36        1.96
  YS02001910           JUNCTION     0.60     2.02     8.53     0  01:48        2.02
  YS02001915           JUNCTION     0.42     2.00     8.72     0  01:36        1.68
  YS02001918           JUNCTION     0.24     1.81     8.88     0  01:37        1.35
  YS02001920           JUNCTION     0.33     2.14     9.15     0  01:38        1.42
  YS02001923           JUNCTION     0.19     2.03     9.29     0  01:37        1.18
  YS02001926           JUNCTION     0.22     1.90     9.35     0  01:37        1.90
  YS02001929           JUNCTION     0.13     1.78     9.47     0  01:37        1.78
  YS02006553           JUNCTION     0.80     2.19     8.47     0  02:01        2.19
  YS02006556           JUNCTION     0.77     2.39     8.70     0  02:01        2.39
  YS02006558           JUNCTION     0.81     2.23     8.50     0  02:01        2.23
  YS02006561           JUNCTION     0.21     1.02     7.68     0  01:48        0.88
  YS02163301           JUNCTION     0.62     1.96     8.48     0  01:48        1.91
  YS02163601           JUNCTION     0.70     2.08     8.48     0  01:38        2.01
  YS02164001           JUNCTION     0.63     2.08     8.54     0  01:48        1.94
  CC-1                 OUTFALL      0.00     0.00     0.00     0  00:00        0.00
  CC-2                 OUTFALL      0.00     0.00     0.00     0  00:00        0.00
  JK-1                 OUTFALL      0.00     0.00     0.00     0  00:00        0.00
  JK-2                 OUTFALL      0.00     0.00     0.00     0  00:00        0.00
  WSC                  OUTFALL      0.15     0.29     0.96     0  02:56        0.29
  CC-storage           STORAGE      0.74     1.35     6.85     0  02:14        1.35
  JK-storage           STORAGE      1.64     4.22     5.02     0  01:50        4.22
  
  
  *******************
  Node Inflow Summary
  *******************
  
  -------------------------------------------------------------------------------------------------
                                  Maximum  Maximum                  Lateral       Total        Flow
                                  Lateral    Total  Time of Max      Inflow      Inflow     Balance
                                   Inflow   Inflow   Occurrence      Volume      Volume       Error
  Node                 Type           LPS      LPS  days hr:min    10^6 ltr    10^6 ltr     Percent
  -------------------------------------------------------------------------------------------------
  WS02003060           JUNCTION     16.53   526.53     0  02:54       0.476        3.44       0.063
  WS02003066           JUNCTION      0.00   508.40     0  02:53           0        2.96       0.048
  WS02003067           JUNCTION      0.00   507.92     0  02:53           0        2.97       0.140
  WS02003069           JUNCTION      0.32   526.33     0  02:54     0.00922        3.45       0.113
  WS02003072           JUNCTION      0.00   524.31     0  02:55           0        3.44       0.204
  WS02003073           JUNCTION      1.82   524.59     0  02:55      0.0524        3.49       0.158
  WS02004401           JUNCTION      0.00   530.51     0  02:50           0        3.07       0.336
  WS02004402           JUNCTION      0.00   528.84     0  02:51           0        3.06       0.341
  WS02004403           JUNCTION      0.00   526.65     0  02:51           0        3.05       0.333
  WS02004404           JUNCTION      0.16   526.36     0  02:51     0.00467        3.04       0.289
  WS02004405           JUNCTION      0.04   525.94     0  02:51      0.0011        3.04       0.397
  WS02004406           JUNCTION      0.00   525.47     0  02:51           0        3.02       0.697
  WS02004407           JUNCTION      0.00   524.60     0  02:51           0           3       0.036
  WS02004409           JUNCTION      0.00   523.82     0  02:52           0           3       0.086
  WS02004410           JUNCTION      0.00   517.64     0  02:52           0           3       0.146
  WS02004411           JUNCTION      0.00   515.48     0  02:52           0        2.99       0.186
  WS02004412           JUNCTION      0.00   512.22     0  02:53           0        2.99       0.248
  WS02004413           JUNCTION      0.00   509.61     0  02:53           0        2.98       0.453
  WS02006109           JUNCTION      1.23   557.80     0  02:03      0.0354        3.12       0.307
  WS02006110           JUNCTION      0.00   558.16     0  02:03           0        3.11       0.214
  WS02006111           JUNCTION      0.00   561.33     0  02:33           0         3.1       0.033
  WS02006112           JUNCTION      0.00   542.43     0  02:33           0         3.1       0.669
  WS02006113           JUNCTION      0.00   567.62     0  02:04           0         3.1       0.051
  WS02006115           JUNCTION      0.00   541.26     0  02:50           0        3.08       0.230
  WS02006116           JUNCTION      0.00   537.69     0  02:50           0        3.07       0.072
  WS02006228           JUNCTION      0.00   556.71     0  02:03           0        3.09       0.111
  WS02006229           JUNCTION      0.00   556.37     0  02:03           0        3.09       0.136
  WS02006230           JUNCTION     10.28   582.41     0  02:45       0.296         3.1       0.145
  WS02006231           JUNCTION      0.00   578.10     0  02:03           0         2.8       0.061
  WS02006232           JUNCTION      0.00   577.09     0  02:03           0        2.81       0.201
  WS02006234           JUNCTION      0.00   571.08     0  02:03           0         2.8      -0.200
  WS02006235           JUNCTION      0.00   561.00     0  02:03           0        2.82       0.238
  WS02006238           JUNCTION      0.00   425.94     0  02:05           0        2.52      -0.243
  WS02006239           JUNCTION      0.00   424.23     0  02:05           0        2.51      -0.226
  WS02006240           JUNCTION      0.00   419.48     0  01:55           0         2.5      -0.041
  WS02006242           JUNCTION      0.00   419.86     0  02:05           0        2.49      -0.012
  WS02006243           JUNCTION      0.00   421.32     0  02:05           0        2.49      -0.329
  WS02006245           JUNCTION      0.00   421.65     0  02:05           0         2.5       0.470
  WS02006247           JUNCTION      0.00   422.30     0  02:05           0         2.5      -0.036
  WS02006248           JUNCTION      0.00   422.11     0  02:05           0        2.49      -0.120
  WS02006249           JUNCTION      0.00   459.02     0  00:00           0        2.58       0.515
  WS02006251           JUNCTION      0.08   407.17     0  01:49     0.00222        2.58       0.049
  WS02006252           JUNCTION      0.00   400.00     0  00:00           0        2.56      -0.728
  WS02006256           JUNCTION      0.00   300.00     0  00:00           0       0.435      -1.360
  WSF200               JUNCTION      0.00   508.61     0  02:53           0        2.96       0.016
  YS02001580           JUNCTION      0.00   220.47     0  01:36           0      0.0049       1.377
  YS02001583           JUNCTION      0.00   265.56     0  01:36           0       0.015     -11.924
  YS02001586           JUNCTION    537.61   537.61     0  01:43        1.48        1.49       0.114
  YS02001590           JUNCTION      0.00   332.02     0  01:48           0        1.28      -0.042
  YS02001593           JUNCTION      0.00   326.38     0  01:48           0        1.28       0.002
  YS02001596           JUNCTION      0.00   319.28     0  01:48           0        1.28      -0.011
  YS02001600           JUNCTION      0.00   319.41     0  01:48           0        1.28      -0.006
  YS02001601           JUNCTION   1016.28  1333.77     0  01:41        2.06        3.34       0.004
  YS02001602           JUNCTION      0.00   588.11     0  01:35           0        2.24       0.014
  YS02001605           JUNCTION      0.00   588.03     0  01:35           0        2.15       0.015
  YS02001607           JUNCTION      0.00   588.01     0  01:35           0        2.15       0.079
  YS02001610           JUNCTION      0.00   560.16     0  01:35           0        2.19       0.088
  YS02001613           JUNCTION      0.00   524.17     0  01:35           0         1.8       0.080
  YS02001616           JUNCTION      0.00   493.29     0  02:13           0         1.8       0.006
  YS02001619           JUNCTION    947.79   947.79     0  01:43        2.37        4.13      -0.002
  YS02001622           JUNCTION      0.00   887.08     0  02:01           0        4.08      -0.005
  YS02001625           JUNCTION      0.00  1077.32     0  01:43           0        4.13       0.204
  YS02001629           JUNCTION      0.00   883.42     0  02:01           0        3.51       0.021
  YS02001633           JUNCTION    754.46  1370.35     0  01:37         1.5        4.94       0.067
  YS02001641           JUNCTION      0.00  1369.68     0  01:37           0        4.89       0.054
  YS02001644           JUNCTION    676.40  1912.20     0  01:37         1.3        6.18       0.052
  YS02001647           JUNCTION      0.00  1912.03     0  01:37           0        6.11       0.004
  YS02001649           JUNCTION      0.00  2226.49     0  01:37           0        7.29       0.002
  YS02001652           JUNCTION      0.00   837.68     0  01:40           0        1.18      -0.172
  YS02001655           JUNCTION      0.15   837.75     0  01:40     0.00443        1.18      -0.074
  YS02001658           JUNCTION      0.00   836.40     0  01:40           0        1.18      -0.120
  YS02001661           JUNCTION      0.00   834.56     0  01:39           0        1.18       0.040
  YS02001664           JUNCTION    656.37   656.37     0  01:39        1.18        1.18      -0.009
  YS02001745           JUNCTION    443.23   671.52     0  01:38       0.718        0.72       0.274
  YS02001748           JUNCTION      0.04   724.05     0  01:38      0.0013       0.723      -0.461
  YS02001751           JUNCTION      0.01   626.61     0  01:39    0.000317       0.732       0.096
  YS02001754           JUNCTION      0.26   627.30     0  01:39     0.00749       0.744      -0.289
  YS02001757           JUNCTION      0.00  3526.74     0  01:39           0        10.5       0.059
  YS02001759           JUNCTION    609.23  1460.13     0  01:38        0.99         2.5      -0.017
  YS02001762           JUNCTION      0.00   850.61     0  01:38           0        1.51      -0.010
  YS02001765           JUNCTION      0.00   849.74     0  01:38           0        1.51      -0.005
  YS02001767           JUNCTION      0.54   848.96     0  01:38      0.0154        1.51      -0.012
  YS02001770           JUNCTION    853.27   853.27     0  01:40        1.52        1.56      -0.026
  YS02001774           JUNCTION      0.00   619.61     0  01:37           0      0.0822       1.115
  YS02001779           JUNCTION      0.01   624.26     0  01:37    0.000144      0.0388      -1.741
  YS02001783           JUNCTION      0.00  1159.81     0  01:38           0        3.91       0.005
  YS02001784           JUNCTION      1.06  1161.23     0  01:38      0.0305        3.94       0.018
  YS02001786           JUNCTION      0.06  1161.05     0  01:38     0.00162        3.94       0.014
  YS02001788           JUNCTION      0.07  1161.52     0  01:38     0.00204        3.94       0.008
  YS02001790           JUNCTION      0.15  1181.52     0  01:37     0.00446        3.94       0.030
  YS02001791           JUNCTION      0.00  1277.54     0  01:41           0        3.94      -0.026
  YS02001793           JUNCTION      0.00  1233.11     0  01:51           0        3.94       0.008
  YS02001882           JUNCTION      0.00   140.99     0  01:36           0       0.013       4.583
  YS02001884           JUNCTION      0.00   185.68     0  01:36           0      0.0489       5.344
  YS02001887           JUNCTION    679.14   679.53     0  01:38        1.04        1.07       0.408
  YS02001890           JUNCTION      0.00   679.53     0  01:38           0        1.03       0.492
  YS02001895           JUNCTION      0.00   637.88     0  01:37           0       0.992       0.153
  YS02001898           JUNCTION      0.00   637.65     0  01:37           0        0.99       0.010
  YS02001901           JUNCTION      0.00   636.65     0  01:37           0       0.992       0.324
  YS02001904           JUNCTION      0.00   635.68     0  01:37           0       0.999       0.276
  YS02001907           JUNCTION      0.00  1697.69     0  01:38           0        3.27       0.514
  YS02001910           JUNCTION      0.00  1154.12     0  01:38           0        2.28       0.305
  YS02001915           JUNCTION    736.84  1153.90     0  01:38        1.44        2.34       0.063
  YS02001918           JUNCTION      0.00   859.10     0  01:37           0       0.934      -0.000
  YS02001920           JUNCTION      2.87   792.48     0  01:37      0.0827       0.906       0.114
  YS02001923           JUNCTION      0.04  1038.41     0  01:37     0.00109       0.805      -0.128
  YS02001926           JUNCTION      0.05  1291.34     0  01:37      0.0015       0.783      -0.043
  YS02001929           JUNCTION    349.99   916.28     0  01:37       0.758       0.765      -0.106
  YS02006553           JUNCTION      0.00   790.63     0  01:58           0        2.44       0.472
  YS02006556           JUNCTION      0.00   791.13     0  01:58           0        2.45       0.311
  YS02006558           JUNCTION    871.39  1161.69     0  01:48        1.52        3.94       0.091
  YS02006561           JUNCTION      0.00  1161.98     0  01:36           0        3.91      -0.004
  YS02163301           JUNCTION      0.00   912.96     0  02:01           0         3.5       0.038
  YS02163601           JUNCTION      0.11  1370.08     0  01:37     0.00317        4.88       0.100
  YS02164001           JUNCTION      0.00  1369.76     0  01:37           0        4.88       0.047
  CC-1                 OUTFALL       0.00   683.00     0  00:00           0        4.31       0.000
  CC-2                 OUTFALL       0.00   683.00     0  00:00           0        4.52       0.000
  JK-1                 OUTFALL       0.00  1000.00     0  00:00           0       0.329       0.000
  JK-2                 OUTFALL       0.00  1000.00     0  00:00           0        3.29       0.000
  WSC                  OUTFALL       0.00   522.79     0  02:56           0        3.48       0.000
  CC-storage           STORAGE       0.00  3528.56     0  01:39           0        12.7      -0.239
  JK-storage           STORAGE       0.00  1263.73     0  01:50           0        4.09      -0.392
  
  
  **********************
  Node Surcharge Summary
  **********************
  
  Surcharging occurs when water rises above the top of the highest conduit.
  ---------------------------------------------------------------------
                                               Max. Height   Min. Depth
                                   Hours       Above Crown    Below Rim
  Node                 Type      Surcharged         Meters       Meters
  ---------------------------------------------------------------------
  WS02006109           JUNCTION        1.13          0.391        1.429
  WS02006110           JUNCTION        0.22          0.407        1.443
  WS02006112           JUNCTION        0.12          0.039        1.641
  WS02006228           JUNCTION        1.13          0.347        1.853
  WS02006229           JUNCTION        1.14          0.429        2.021
  WS02006230           JUNCTION        0.22          0.332        1.238
  WS02006231           JUNCTION        0.28          0.409        1.121
  WS02006232           JUNCTION        1.16          0.563        0.917
  WS02006234           JUNCTION        0.45          0.545        0.695
  WS02006235           JUNCTION        1.12          0.646        0.644
  WS02006238           JUNCTION        1.14          0.680        0.750
  WS02006239           JUNCTION        1.13          0.654        0.636
  WS02006240           JUNCTION        1.13          0.640        0.750
  WS02006242           JUNCTION        1.17          0.669        0.151
  WS02006243           JUNCTION        1.13          0.554        0.216
  WS02006245           JUNCTION        1.12          0.504        0.346
  WS02006247           JUNCTION        1.12          0.488        0.272
  WS02006248           JUNCTION        1.11          0.380        0.000
  WS02006249           JUNCTION        1.11          0.390        0.000
  WS02006251           JUNCTION        0.30          0.358        0.822
  WS02006252           JUNCTION        1.53          1.100        0.000
  WS02006256           JUNCTION        5.67          2.050        0.000
  YS02001580           JUNCTION        0.56          0.450        0.000
  YS02001583           JUNCTION        0.57          0.500        0.000
  YS02001586           JUNCTION        0.70          0.510        0.000
  YS02001590           JUNCTION        0.78          0.750        0.000
  YS02001593           JUNCTION        0.78          0.773        0.067
  YS02001596           JUNCTION        0.88          1.070        0.000
  YS02001600           JUNCTION        1.03          1.190        0.000
  YS02001601           JUNCTION        1.50          1.440        0.000
  YS02001602           JUNCTION        1.33          1.270        0.000
  YS02001605           JUNCTION        1.26          1.180        0.000
  YS02001607           JUNCTION        0.71          0.680        0.000
  YS02001610           JUNCTION        0.74          0.680        0.000
  YS02001613           JUNCTION        0.71          0.700        0.000
  YS02001616           JUNCTION        0.67          0.610        0.000
  YS02001619           JUNCTION        0.65          0.610        0.000
  YS02001622           JUNCTION        0.64          0.620        0.000
  YS02001625           JUNCTION        0.83          0.780        0.000
  YS02001629           JUNCTION        0.58          0.470        0.000
  YS02001633           JUNCTION        0.84          1.060        0.000
  YS02001641           JUNCTION        0.76          1.051        0.049
  YS02001644           JUNCTION        0.72          0.920        0.000
  YS02001647           JUNCTION        0.50          0.841        0.059
  YS02001649           JUNCTION        0.61          1.050        0.000
  YS02001652           JUNCTION        0.40          1.130        0.000
  YS02001655           JUNCTION        0.23          1.200        0.000
  YS02001658           JUNCTION        0.09          1.300        0.000
  YS02001661           JUNCTION        0.01          1.078        0.312
  YS02001745           JUNCTION        0.01          0.494        0.856
  YS02001748           JUNCTION        0.01          1.190        0.000
  YS02001751           JUNCTION        0.12          1.200        0.000
  YS02001754           JUNCTION        0.27          1.150        0.000
  YS02001757           JUNCTION        0.65          1.210        0.000
  YS02001759           JUNCTION        0.54          1.210        0.000
  YS02001762           JUNCTION        0.50          1.150        0.000
  YS02001765           JUNCTION        0.46          1.100        0.000
  YS02001767           JUNCTION        0.42          1.030        0.000
  YS02001770           JUNCTION        0.40          0.920        0.000
  YS02001774           JUNCTION        0.49          1.050        0.000
  YS02001779           JUNCTION        0.28          0.680        0.000
  YS02001783           JUNCTION        0.52          0.863        0.737
  YS02001784           JUNCTION        0.49          0.674        0.816
  YS02001786           JUNCTION        0.39          0.725        0.705
  YS02001882           JUNCTION        0.46          0.830        0.000
  YS02001884           JUNCTION        0.47          0.802        0.068
  YS02001887           JUNCTION        0.51          0.829        0.121
  YS02001890           JUNCTION        0.52          0.760        0.000
  YS02001895           JUNCTION        0.45          0.750        0.000
  YS02001898           JUNCTION        0.45          0.740        0.000
  YS02001901           JUNCTION        0.49          0.870        0.000
  YS02001904           JUNCTION        0.49          0.850        0.000
  YS02001907           JUNCTION        0.70          0.950        0.000
  YS02001910           JUNCTION        0.54          1.021        0.079
  YS02001915           JUNCTION        0.46          1.000        0.000
  YS02001918           JUNCTION        0.38          0.810        0.000
  YS02001920           JUNCTION        0.39          1.140        0.000
  YS02001923           JUNCTION        0.01          0.820        0.000
  YS02001926           JUNCTION        0.02          0.900        0.000
  YS02001929           JUNCTION        0.01          0.780        0.000
  YS02006553           JUNCTION        0.72          1.190        0.000
  YS02006556           JUNCTION        0.62          1.350        0.000
  YS02006558           JUNCTION        0.61          1.132        0.268
  YS02006561           JUNCTION        0.35          0.219        0.931
  YS02163301           JUNCTION        0.82          0.964        0.066
  YS02163601           JUNCTION        0.86          1.080        0.000
  YS02164001           JUNCTION        0.76          1.078        0.022
  
  
  *********************
  Node Flooding Summary
  *********************
  
  Flooding refers to all water that overflows a node, whether it ponds or not.
  --------------------------------------------------------------------------
                                                             Total   Maximum
                                 Maximum   Time of Max       Flood    Ponded
                        Hours       Rate    Occurrence      Volume     Depth
  Node                 Flooded       LPS   days hr:min    10^6 ltr    Meters
  --------------------------------------------------------------------------
  WS02006248              0.01      5.26      0  02:03       0.000     0.000
  WS02006249              0.29     99.39      0  01:49       0.070     0.000
  WS02006252              0.01    245.63      0  00:00       0.000     0.000
  WS02006256              0.40    293.19      0  00:00       0.139     0.000
  YS02001580              0.01    204.46      0  01:36       0.001     0.000
  YS02001583              0.01    241.46      0  01:36       0.000     0.000
  YS02001586              0.43    220.10      0  01:43       0.200     0.000
  YS02001590              0.01      4.32      0  01:48       0.000     0.000
  YS02001596              0.01      0.12      0  02:01       0.000     0.000
  YS02001600              0.01      8.40      0  01:48       0.000     0.000
  YS02001601              0.62    935.94      0  01:41       1.098     0.000
  YS02001602              0.47     67.00      0  01:48       0.096     0.000
  YS02001605              0.01      5.65      0  01:36       0.000     0.000
  YS02001607              0.01    263.71      0  01:36       0.001     0.000
  YS02001610              0.42    444.63      0  01:43       0.428     0.000
  YS02001613              0.01     63.46      0  01:36       0.000     0.000
  YS02001616              0.01    231.98      0  01:36       0.001     0.000
  YS02001619              0.01    152.85      0  01:36       0.001     0.000
  YS02001622              0.01    100.41      0  01:36       0.000     0.000
  YS02001625              0.37   1077.31      0  01:43       0.661     0.000
  YS02001629              0.08    298.77      0  01:36       0.026     0.000
  YS02001633              0.01     12.30      0  02:01       0.000     0.000
  YS02001644              0.08    444.83      0  01:40       0.058     0.000
  YS02001649              0.01     47.88      0  01:38       0.000     0.000
  YS02001652              0.01     42.50      0  01:38       0.000     0.000
  YS02001655              0.01    618.35      0  01:38       0.001     0.000
  YS02001658              0.01    381.02      0  01:39       0.000     0.000
  YS02001748              0.01    456.13      0  01:39       0.001     0.000
  YS02001751              0.01    253.14      0  01:38       0.000     0.000
  YS02001754              0.01    339.57      0  01:38       0.000     0.000
  YS02001757              0.01     39.09      0  01:48       0.000     0.000
  YS02001759              0.01      0.67      0  01:48       0.000     0.000
  YS02001762              0.01      8.76      0  01:39       0.000     0.000
  YS02001765              0.01      6.18      0  01:39       0.000     0.000
  YS02001767              0.01    182.17      0  01:37       0.000     0.000
  YS02001770              0.01    261.73      0  01:37       0.000     0.000
  YS02001774              0.01     72.60      0  01:37       0.000     0.000
  YS02001779              0.06    596.35      0  01:38       0.020     0.000
  YS02001882              0.01    117.94      0  01:36       0.000     0.000
  YS02001890              0.12    259.19      0  01:36       0.035     0.000
  YS02001895              0.01    269.40      0  01:36       0.001     0.000
  YS02001898              0.01    175.08      0  01:36       0.000     0.000
  YS02001901              0.01      0.35      0  01:48       0.000     0.000
  YS02001904              0.01      0.47      0  02:01       0.000     0.000
  YS02001907              0.32   1407.49      0  01:39       0.821     0.000
  YS02001915              0.01    238.97      0  01:36       0.000     0.000
  YS02001918              0.01    393.85      0  01:37       0.004     0.000
  YS02001920              0.01     53.47      0  01:38       0.000     0.000
  YS02001923              0.01    452.73      0  01:38       0.003     0.000
  YS02001926              0.01    816.61      0  01:37       0.004     0.000
  YS02001929              0.01    831.90      0  01:37       0.002     0.000
  YS02006553              0.01      0.36      0  02:01       0.000     0.000
  YS02006556              0.01      0.65      0  02:01       0.000     0.000
  YS02163601              0.01     55.10      0  01:48       0.000     0.000
  
  
  **********************
  Storage Volume Summary
  **********************
  
  ------------------------------------------------------------------------------------------------
                         Average    Avg   Evap  Exfil     Maximum    Max    Time of Max    Maximum
                          Volume   Pcnt   Pcnt   Pcnt      Volume   Pcnt     Occurrence    Outflow
  Storage Unit           1000 m³   Full   Loss   Loss     1000 m³   Full    days hr:min        LPS
  ------------------------------------------------------------------------------------------------
  CC-storage               2.052   32.0    0.0    0.0       3.773   58.9       0  02:14    1783.53
  JK-storage               0.082   28.2    0.0    0.0       0.212   72.8       0  01:50    2300.00
  
  
  ***********************
  Outfall Loading Summary
  ***********************
  
  -----------------------------------------------------------
                         Flow       Avg       Max       Total
                         Freq      Flow      Flow      Volume
  Outfall Node           Pcnt       LPS       LPS    10^6 ltr
  -----------------------------------------------------------
  CC-1                  50.39    683.00    683.00       4.312
  CC-2                  52.17    683.00    683.00       4.516
  JK-1                   1.61   1000.00   1000.00       0.329
  JK-2                  27.15   1000.00   1000.00       3.289
  WSC                   99.94    196.00    522.79       3.482
  -----------------------------------------------------------
  System                46.25   3562.00   3398.94      15.927
  
  
  ********************
  Link Flow Summary
  ********************
  
  -----------------------------------------------------------------------------
                                 Maximum  Time of Max   Maximum    Max/    Max/
                                  |Flow|   Occurrence   |Veloc|    Full    Full
  Link                 Type          LPS  days hr:min     m/sec    Flow   Depth
  -----------------------------------------------------------------------------
  1                    CONDUIT    522.79     0  02:56      2.78    0.18    0.29
  WS02003060WS02003069 CONDUIT    526.01     0  02:54      1.62    0.21    0.33
  WS02003066WSF200     CONDUIT    508.61     0  02:53      2.81    0.09    0.22
  WS02003067WS02003066 CONDUIT    508.40     0  02:53      1.17    0.16    0.41
  WS02003069WS02003072 CONDUIT    524.31     0  02:55      1.35    0.25    0.38
  WS02003072WS02003073 CONDUIT    522.76     0  02:55      1.41    1.13    0.36
  WS02004401WS02004402 CONDUIT    528.84     0  02:51      1.23    0.63    0.85
  WS02004402WS02004403 CONDUIT    526.65     0  02:51      1.26    0.76    0.87
  WS02004403WS02004404 CONDUIT    526.20     0  02:51      1.25    0.38    0.92
  WS02004404WS02004405 CONDUIT    525.90     0  02:51      1.48    5.15    0.95
  WS02004405WS02004406 CONDUIT    525.47     0  02:51      1.47    1.04    0.95
  WS02004406WS02004407 CONDUIT    524.60     0  02:51      1.02    0.23    0.62
  WS02004407WS02004409 CONDUIT    523.82     0  02:52      1.56    0.19    0.47
  WS02004409WS02004410 CONDUIT    517.64     0  02:52      1.05    0.67    0.65
  WS02004410WS02004411 CONDUIT    515.48     0  02:52      0.99    0.70    0.67
  WS02004411WS02004412 CONDUIT    512.22     0  02:53      0.95    0.73    0.68
  WS02004412WS02004413 CONDUIT    509.61     0  02:53      1.00    0.34    0.76
  WS02004413WS02003067 CONDUIT    507.92     0  02:53      1.08    0.22    0.58
  WS02006109WS02006110 CONDUIT    558.16     0  02:03      1.11    1.07    1.00
  WS02006110WS02006113 CONDUIT    567.62     0  02:04      1.38    0.52    0.79
  WS02006111WS02006112 CONDUIT    542.43     0  02:33      1.96    0.26    0.67
  WS02006112WS02006115 CONDUIT    541.26     0  02:50      0.86    0.32    0.86
  WS02006113WS02006111 CONDUIT    561.33     0  02:33      2.46    0.67    0.46
  WS02006115WS02006116 CONDUIT    537.69     0  02:50      1.28    0.69    0.75
  WS02006116WS02004401 CONDUIT    530.51     0  02:50      1.21    0.73    0.83
  WS02006228WS02006109 CONDUIT    556.57     0  02:03      1.11    2.43    1.00
  WS02006229WS02006228 CONDUIT    556.71     0  02:03      1.14    1.84    1.00
  WS02006230WS02006229 CONDUIT    556.37     0  02:03      1.45   12.38    1.00
  WS02006231WS02006230 CONDUIT    572.13     0  02:45      1.56    8.68    1.00
  WS02006232WS02006231 CONDUIT    578.10     0  02:03      1.51    1.21    1.00
  WS02006234WS02006232 CONDUIT    577.09     0  02:03      1.50    1.17    1.00
  WS02006235WS02006234 CONDUIT    571.08     0  02:03      1.48    6.03    1.00
  WS02006238WS02006235 CONDUIT    426.75     0  02:05      1.45    0.95    1.00
  WS02006239WS02006238 CONDUIT    425.94     0  02:05      1.11    1.36    1.00
  WS02006240WS02006239 CONDUIT    424.23     0  02:05      1.24    1.33    1.00
  WS02006242WS02006240 CONDUIT    419.48     0  01:55      1.13    1.67    1.00
  WS02006243WS02006242 CONDUIT    419.86     0  02:05      1.40    0.90    1.00
  WS02006245WS02006243 CONDUIT    421.32     0  02:05      1.45    1.25    1.00
  WS02006247WS02006245 CONDUIT    421.65     0  02:05      1.43    3.34    1.00
  WS02006248WS02006247 CONDUIT    422.30     0  02:05      1.44    0.92    1.00
  WS02006249WS02006248 CONDUIT    422.11     0  02:05      1.36    2.31    1.00
  WS02006251WS02006249 CONDUIT    459.02     0  00:00      1.99    1.32    1.00
  WS02006252WS02006251 CONDUIT    407.09     0  01:49     17.83    1.49    1.00
  WS02006256WS02006235 CONDUIT    288.91     0  00:00      4.23    3.06    1.00
  WSF200WS02003060     CONDUIT    510.00     0  02:54      2.03    0.11    0.27
  YS02001580YS02001583 CONDUIT    220.47     0  01:36      1.02    0.85    1.00
  YS02001583YS02001586 CONDUIT    237.53     0  01:35      1.08    0.36    1.00
  YS02001586YS02001590 CONDUIT    332.02     0  01:48      1.30    0.58    1.00
  YS02001590YS02001593 CONDUIT    326.38     0  01:48      1.15    2.05    1.00
  YS02001593YS02001596 CONDUIT    319.28     0  01:48      1.74    0.50    1.00
  YS02001596YS02001600 CONDUIT    319.41     0  01:48      1.20    0.62    1.00
  YS02001600YS02001601 CONDUIT    317.95     0  01:46      1.12    0.55    1.00
  YS02001601YS02001602 CONDUIT    588.11     0  01:35      2.08    2.12    1.00
  YS02001602YS02001605 CONDUIT    588.03     0  01:35      2.08   12.44    1.00
  YS02001605YS02001607 CONDUIT    588.01     0  01:35      2.08    3.22    1.00
  YS02001607YS02001610 CONDUIT    560.16     0  01:35      0.76    0.53    1.00
  YS02001610YS02001613 CONDUIT    524.17     0  01:35      0.70    0.60    1.00
  YS02001613YS02001616 CONDUIT    493.29     0  02:13      0.69    0.42    1.00
  YS02001616YS02001619 CONDUIT    494.30     0  02:13      0.67    0.86    1.00
  YS02001619YS02001622 CONDUIT    887.08     0  02:01      1.35    1.31    1.00
  YS02001622YS02001625 CONDUIT    885.44     0  02:01      1.13    0.47    1.00
  YS02001625YS02001629 CONDUIT    883.42     0  02:01      1.12    0.42    1.00
  YS02001629YS02163301 CONDUIT    912.96     0  02:01      1.16    1.12    1.00
  YS02001633YS02163601 CONDUIT   1369.97     0  01:37      1.74    1.44    1.00
  YS02001641YS02001644 CONDUIT   1370.31     0  01:37      1.74    4.43    1.00
  YS02001644YS02001647 CONDUIT   1912.03     0  01:37      2.43    1.12    1.00
  YS02001647YS02001649 CONDUIT   1932.46     0  01:37      2.46    1.02    1.00
  YS02001649YS02001757 CONDUIT   2226.11     0  01:37      2.83    1.35    1.00
  YS02001652YS02001649 CONDUIT    838.15     0  01:40      1.07    0.42    1.00
  YS02001655YS02001652 CONDUIT    837.68     0  01:40      1.62    0.41    1.00
  YS02001658YS02001655 CONDUIT    837.59     0  01:40      2.12    0.36    1.00
  YS02001661YS02001658 CONDUIT    836.40     0  01:40      2.50    0.33    1.00
  YS02001664YS02001661 CONDUIT    834.56     0  01:39      2.50    0.26    0.82
  YS02001745YS02001748 CONDUIT    700.62     0  01:39      2.44    0.27    1.00
  YS02001748YS02001751 CONDUIT    626.60     0  01:39      1.96    0.32    1.00
  YS02001751YS02001754 CONDUIT    627.04     0  01:39      1.66    0.30    1.00
  YS02001754YS02001757 CONDUIT    627.70     0  01:39      0.80    0.25    1.00
  YS02001757CaochengTiaoxuchi CONDUIT   3528.56     0  01:39      5.04    1.53    1.00
  YS02001759YS02001757 CONDUIT   1460.76     0  01:38      1.86    1.04    1.00
  YS02001762YS02001759 CONDUIT    851.38     0  01:38      1.08    0.98    1.00
  YS02001765YS02001762 CONDUIT    850.61     0  01:38      1.08    0.80    1.00
  YS02001767YS02001765 CONDUIT    849.74     0  01:38      1.08    1.07    1.00
  YS02001770YS02001767 CONDUIT    848.43     0  01:38      1.08    3.36    1.00
  YS02001774YS02001770 CONDUIT    619.61     0  01:37      0.79    0.40    1.00
  YS02001779YS02001774 CONDUIT    624.25     0  01:37      0.80    0.31    1.00
  YS02001783YS02001784 CONDUIT   1160.17     0  01:38      2.31    1.60    1.00
  YS02001784YS02001785 CONDUIT   1160.99     0  01:38      2.31    2.70    1.00
  YS02001786YS02001788 CONDUIT   1161.45     0  01:38      2.48    2.24    0.89
  YS02001788YS02001790 CONDUIT   1181.36     0  01:37      2.74    0.87    0.84
  YS02001790YS02001791 CONDUIT   1277.54     0  01:41      3.41    1.39    0.70
  YS02001791YS02001793 CONDUIT   1233.11     0  01:51      6.77    0.53    0.42
  YS02001793JiankangQianchi CONDUIT   1263.73     0  01:50      2.52    0.10    0.63
  YS02001882YS02001884 CONDUIT    140.99     0  01:36      0.18    0.16    1.00
  YS02001884YS02001887 CONDUIT    185.68     0  01:36      0.24    0.25    1.00
  YS02001887YS02001890 CONDUIT    679.53     0  01:38      0.87    1.16    1.00
  YS02001890YS02001895 CONDUIT    637.88     0  01:37      0.81    0.30    1.00
  YS02001895YS02001898 CONDUIT    637.65     0  01:37      0.81    1.11    1.00
  YS02001898YS02001901 CONDUIT    636.65     0  01:37      0.81    0.41    1.00
  YS02001901YS02001904 CONDUIT    635.68     0  01:37      0.81    0.99    1.00
  YS02001904YS02001907 CONDUIT    634.03     0  01:37      0.81    0.22    1.00
  YS02001907YS02006553 CONDUIT    790.63     0  01:58      0.88    0.93    1.00
  YS02001910YS02001907 CONDUIT   1153.96     0  01:38      1.47    0.65    1.00
  YS02001915YS02001910 CONDUIT   1154.12     0  01:38      1.47    0.57    1.00
  YS02001918YS02001915 CONDUIT    859.10     0  01:37      1.10    0.47    1.00
  YS02001920YS02001918 CONDUIT    789.61     0  01:37      1.01    0.76    1.00
  YS02001923YS02001920 CONDUIT    807.22     0  01:37      1.08    0.36    1.00
  YS02001926YS02001923 CONDUIT   1055.39     0  01:37      1.49    1.51    1.00
  YS02001929YS02001926 CONDUIT    627.50     0  01:37      1.25    0.30    1.00
  YS02006553YS02006556 CONDUIT    791.13     0  01:58      1.01    0.68    1.00
  YS02006556YS02006558 CONDUIT    792.33     0  01:57      1.01    0.63    1.00
  YS02006558YS02006561 CONDUIT   1161.98     0  01:36      4.15    2.57    1.00
  YS02006561YS02001783 CONDUIT   1159.81     0  01:38      2.31    0.60    1.00
  YS02163301YS02001633 CONDUIT    882.11     0  02:11      1.12    0.83    1.00
  YS02163601YS02164001 CONDUIT   1369.76     0  01:37      1.74    1.21    1.00
  YS02164001YS02001641 CONDUIT   1369.68     0  01:37      1.74    1.87    1.00
  CC-R1                PUMP       683.00     0  00:00              1.00
  CC-R2                PUMP       683.00     0  00:00              1.00
  CC-S1                PUMP       200.00     0  00:00              1.00
  CC-S2                PUMP       200.00     0  00:00              1.00
  JK-R1                PUMP      1000.00     0  00:00              1.00
  JK-R2                PUMP      1000.00     0  00:00              1.00
  JK-S                 PUMP       300.00     0  00:00              1.00
  
  
  ***************************
  Flow Classification Summary
  ***************************
  
  -------------------------------------------------------------------------------------
                      Adjusted    ---------- Fraction of Time in Flow Class ---------- 
                       /Actual         Up    Down  Sub   Sup   Up    Down  Norm  Inlet 
  Conduit               Length    Dry  Dry   Dry   Crit  Crit  Crit  Crit  Ltd   Ctrl  
  -------------------------------------------------------------------------------------
  1                       1.00   0.00  0.00  0.00  0.00  1.00  0.00  0.00  0.56  0.00
  WS02003060WS02003069    1.00   0.00  0.00  0.00  0.98  0.02  0.00  0.00  0.81  0.00
  WS02003066WSF200        1.00   0.05  0.00  0.00  0.00  0.94  0.00  0.00  0.91  0.00
  WS02003067WS02003066    1.00   0.05  0.00  0.00  0.95  0.00  0.00  0.00  0.00  0.00
  WS02003069WS02003072    1.00   0.00  0.00  0.00  0.99  0.01  0.00  0.00  0.84  0.00
  WS02003072WS02003073    1.00   0.00  0.00  0.00  0.00  0.00  0.00  1.00  0.00  0.00
  WS02004401WS02004402    1.00   0.02  0.00  0.00  0.98  0.00  0.00  0.00  0.00  0.00
  WS02004402WS02004403    1.00   0.02  0.00  0.00  0.98  0.00  0.00  0.00  0.00  0.00
  WS02004403WS02004404    1.00   0.00  0.03  0.00  0.97  0.00  0.00  0.00  0.00  0.00
  WS02004404WS02004405    1.00   0.00  0.00  0.00  1.00  0.00  0.00  0.00  0.01  0.00
  WS02004405WS02004406    1.00   0.00  0.00  0.00  1.00  0.00  0.00  0.00  0.00  0.00
  WS02004406WS02004407    1.00   0.00  0.03  0.00  0.97  0.00  0.00  0.00  0.00  0.00
  WS02004407WS02004409    1.00   0.03  0.00  0.00  0.95  0.01  0.00  0.00  0.96  0.00
  WS02004409WS02004410    1.00   0.03  0.00  0.00  0.96  0.00  0.00  0.00  0.00  0.00
  WS02004410WS02004411    1.00   0.03  0.00  0.00  0.96  0.00  0.00  0.00  0.00  0.00
  WS02004411WS02004412    1.00   0.04  0.00  0.00  0.96  0.00  0.00  0.00  0.00  0.00
  WS02004412WS02004413    1.00   0.04  0.00  0.00  0.96  0.00  0.00  0.00  0.00  0.00
  WS02004413WS02003067    1.00   0.04  0.01  0.00  0.00  0.00  0.95  0.00  0.00  0.00
  WS02006109WS02006110    1.00   0.00  0.01  0.00  0.98  0.00  0.01  0.00  0.00  0.00
  WS02006110WS02006113    1.00   0.01  0.01  0.00  0.98  0.00  0.00  0.00  0.00  0.00
  WS02006111WS02006112    1.00   0.02  0.00  0.00  0.98  0.00  0.00  0.00  0.98  0.00
  WS02006112WS02006115    1.00   0.02  0.00  0.00  0.97  0.00  0.00  0.00  0.00  0.00
  WS02006113WS02006111    1.00   0.02  0.00  0.00  0.00  0.98  0.00  0.00  0.09  0.00
  WS02006115WS02006116    1.00   0.02  0.00  0.00  0.97  0.00  0.00  0.01  0.00  0.00
  WS02006116WS02004401    1.00   0.02  0.00  0.00  0.98  0.00  0.00  0.00  0.00  0.00
  WS02006228WS02006109    1.00   0.00  0.00  0.00  1.00  0.00  0.00  0.00  0.00  0.00
  WS02006229WS02006228    1.00   0.00  0.00  0.00  0.99  0.00  0.00  0.01  0.00  0.00
  WS02006230WS02006229    1.00   0.00  0.00  0.00  0.99  0.00  0.00  0.01  0.01  0.00
  WS02006231WS02006230    1.00   0.00  0.00  0.00  0.16  0.00  0.84  0.00  0.00  0.00
  WS02006232WS02006231    1.00   0.00  0.00  0.00  0.99  0.00  0.01  0.00  0.00  0.00
  WS02006234WS02006232    1.00   0.00  0.00  0.00  1.00  0.00  0.00  0.00  0.19  0.00
  WS02006235WS02006234    1.00   0.00  0.00  0.00  0.58  0.00  0.42  0.00  0.00  0.00
  WS02006238WS02006235    1.00   0.00  0.00  0.00  1.00  0.00  0.00  0.00  0.00  0.00
  WS02006239WS02006238    1.00   0.00  0.00  0.00  1.00  0.00  0.00  0.00  0.36  0.00
  WS02006240WS02006239    1.00   0.00  0.00  0.00  0.39  0.00  0.00  0.61  0.01  0.00
  WS02006242WS02006240    1.00   0.00  0.00  0.00  0.99  0.00  0.00  0.00  0.00  0.00
  WS02006243WS02006242    1.00   0.00  0.00  0.00  0.99  0.00  0.00  0.00  0.71  0.00
  WS02006245WS02006243    1.00   0.00  0.00  0.00  0.71  0.00  0.00  0.28  0.00  0.00
  WS02006247WS02006245    1.00   0.00  0.00  0.00  0.98  0.00  0.00  0.01  0.00  0.00
  WS02006248WS02006247    1.00   0.00  0.00  0.00  0.99  0.00  0.00  0.01  0.64  0.00
  WS02006249WS02006248    1.00   0.00  0.00  0.00  0.33  0.00  0.67  0.00  0.00  0.00
  WS02006251WS02006249    1.00   0.00  0.00  0.00  0.99  0.01  0.00  0.00  0.65  0.00
  WS02006252WS02006251    1.00   0.09  0.56  0.00  0.04  0.00  0.31  0.00  0.00  0.00
  WS02006256WS02006235    1.00   0.00  0.00  0.00  1.00  0.00  0.00  0.00  0.00  0.00
  WSF200WS02003060        1.00   0.00  0.06  0.00  0.59  0.35  0.00  0.00  0.73  0.00
  YS02001580YS02001583    1.00   0.20  0.61  0.00  0.19  0.00  0.00  0.00  0.71  0.00
  YS02001583YS02001586    1.00   0.43  0.32  0.00  0.25  0.00  0.00  0.00  0.71  0.00
  YS02001586YS02001590    1.00   0.13  0.00  0.00  0.41  0.04  0.00  0.42  0.34  0.00
  YS02001590YS02001593    1.00   0.13  0.01  0.00  0.11  0.00  0.76  0.00  0.00  0.00
  YS02001593YS02001596    1.00   0.13  0.00  0.00  0.13  0.01  0.00  0.73  0.02  0.00
  YS02001596YS02001600    1.00   0.14  0.00  0.00  0.20  0.01  0.00  0.65  0.06  0.00
  YS02001600YS02001601    1.00   0.13  0.01  0.00  0.86  0.00  0.00  0.00  0.61  0.00
  YS02001601YS02001602    1.00   0.13  0.01  0.00  0.87  0.00  0.00  0.00  0.00  0.00
  YS02001602YS02001605    1.00   0.14  0.00  0.00  0.86  0.00  0.00  0.00  0.00  0.00
  YS02001605YS02001607    1.00   0.14  0.00  0.00  0.86  0.00  0.00  0.00  0.00  0.00
  YS02001607YS02001610    1.00   0.13  0.01  0.00  0.86  0.00  0.00  0.00  0.01  0.00
  YS02001610YS02001613    1.00   0.13  0.00  0.00  0.87  0.00  0.00  0.00  0.00  0.00
  YS02001613YS02001616    1.00   0.13  0.00  0.00  0.87  0.00  0.00  0.00  0.00  0.00
  YS02001616YS02001619    1.00   0.13  0.00  0.00  0.87  0.00  0.00  0.00  0.00  0.00
  YS02001619YS02001622    1.00   0.13  0.00  0.00  0.87  0.00  0.00  0.00  0.29  0.00
  YS02001622YS02001625    1.00   0.13  0.00  0.00  0.87  0.00  0.00  0.00  0.04  0.00
  YS02001625YS02001629    1.00   0.13  0.05  0.00  0.16  0.00  0.67  0.00  0.00  0.00
  YS02001629YS02163301    1.00   0.15  0.01  0.00  0.84  0.00  0.00  0.00  0.00  0.00
  YS02001633YS02163601    1.00   0.00  0.01  0.00  0.99  0.00  0.00  0.00  0.15  0.00
  YS02001641YS02001644    1.00   0.00  0.01  0.00  0.99  0.00  0.00  0.00  0.00  0.00
  YS02001644YS02001647    1.00   0.00  0.17  0.00  0.83  0.00  0.00  0.00  0.00  0.00
  YS02001647YS02001649    1.00   0.00  0.17  0.00  0.51  0.32  0.00  0.00  0.58  0.00
  YS02001649YS02001757    1.00   0.00  0.00  0.00  0.66  0.34  0.00  0.00  0.53  0.00
  YS02001652YS02001649    1.00   0.00  0.00  0.00  0.97  0.03  0.00  0.00  0.74  0.00
  YS02001655YS02001652    1.00   0.00  0.00  0.00  0.18  0.02  0.00  0.80  0.08  0.00
  YS02001658YS02001655    1.00   0.00  0.14  0.00  0.64  0.22  0.00  0.00  0.72  0.00
  YS02001661YS02001658    1.00   0.14  0.00  0.00  0.47  0.39  0.00  0.00  0.76  0.00
  YS02001664YS02001661    1.00   0.13  0.00  0.00  0.74  0.13  0.00  0.00  0.86  0.00
  YS02001745YS02001748    1.00   0.00  0.00  0.00  0.07  0.01  0.00  0.92  0.05  0.00
  YS02001748YS02001751    1.00   0.00  0.00  0.00  0.80  0.20  0.00  0.00  0.81  0.00
  YS02001751YS02001754    1.00   0.00  0.00  0.00  0.13  0.01  0.00  0.87  0.02  0.00
  YS02001754YS02001757    1.00   0.00  0.00  0.00  1.00  0.00  0.00  0.00  0.86  0.00
  YS02001757CaochengTiaoxuchi    1.00   0.00  0.00  0.00  0.97  0.03  0.00  0.00  0.85  0.00
  YS02001759YS02001757    1.00   0.00  0.00  0.00  1.00  0.00  0.00  0.00  0.62  0.00
  YS02001762YS02001759    1.00   0.00  0.00  0.00  1.00  0.00  0.00  0.00  0.03  0.00
  YS02001765YS02001762    1.00   0.00  0.00  0.00  1.00  0.00  0.00  0.00  0.74  0.00
  YS02001767YS02001765    1.00   0.00  0.00  0.00  1.00  0.00  0.00  0.00  0.00  0.00
  YS02001770YS02001767    1.00   0.00  0.00  0.00  1.00  0.00  0.00  0.00  0.00  0.00
  YS02001774YS02001770    1.00   0.00  0.13  0.00  0.69  0.00  0.17  0.00  0.03  0.00
  YS02001779YS02001774    1.00   0.00  0.00  0.00  1.00  0.00  0.00  0.00  0.79  0.00
  YS02001783YS02001784    1.00   0.00  0.17  0.00  0.83  0.00  0.00  0.00  0.56  0.00
  YS02001784YS02001785    1.00   0.00  0.00  0.00  1.00  0.00  0.00  0.00  0.16  0.00
  YS02001786YS02001788    1.00   0.00  0.00  0.00  0.79  0.21  0.00  0.00  0.00  0.00
  YS02001788YS02001790    1.00   0.00  0.00  0.00  0.20  0.80  0.00  0.00  0.81  0.00
  YS02001790YS02001791    1.00   0.00  0.00  0.00  0.01  0.99  0.00  0.00  0.17  0.00
  YS02001791YS02001793    1.00   0.00  0.00  0.00  0.00  1.00  0.00  0.00  0.01  0.00
  YS02001793JiankangQianchi    1.00   0.00  0.00  0.00  0.96  0.04  0.00  0.00  0.98  0.00
  YS02001882YS02001884    1.00   0.15  0.01  0.00  0.84  0.00  0.00  0.00  0.00  0.00
  YS02001884YS02001887    1.00   0.06  0.05  0.00  0.89  0.00  0.00  0.00  0.00  0.00
  YS02001887YS02001890    1.00   0.00  0.00  0.00  0.97  0.00  0.03  0.00  0.00  0.00
  YS02001890YS02001895    1.00   0.00  0.16  0.00  0.84  0.00  0.00  0.00  0.00  0.00
  YS02001895YS02001898    1.00   0.16  0.00  0.00  0.82  0.00  0.01  0.00  0.00  0.00
  YS02001898YS02001901    1.00   0.16  0.00  0.00  0.84  0.00  0.00  0.00  0.01  0.00
  YS02001901YS02001904    1.00   0.16  0.00  0.00  0.84  0.00  0.00  0.00  0.00  0.00
  YS02001904YS02001907    1.00   0.00  0.16  0.00  0.84  0.00  0.00  0.00  0.00  0.00
  YS02001907YS02006553    1.00   0.00  0.02  0.00  0.98  0.00  0.00  0.00  0.00  0.00
  YS02001910YS02001907    1.00   0.00  0.00  0.00  0.97  0.00  0.00  0.03  0.12  0.00
  YS02001915YS02001910    1.00   0.00  0.00  0.00  0.97  0.03  0.00  0.00  0.15  0.00
  YS02001918YS02001915    1.00   0.00  0.01  0.00  0.98  0.02  0.00  0.00  0.75  0.00
  YS02001920YS02001918    1.00   0.00  0.01  0.00  0.99  0.00  0.00  0.00  0.00  0.00
  YS02001923YS02001920    1.00   0.00  0.00  0.00  1.00  0.00  0.00  0.00  0.93  0.00
  YS02001926YS02001923    1.00   0.00  0.07  0.00  0.06  0.00  0.87  0.00  0.00  0.00
  YS02001929YS02001926    1.00   0.00  0.13  0.00  0.87  0.00  0.00  0.00  0.82  0.00
  YS02006553YS02006556    1.00   0.01  0.00  0.00  0.99  0.00  0.00  0.00  0.03  0.00
  YS02006556YS02006558    1.00   0.00  0.00  0.00  1.00  0.00  0.00  0.00  0.00  0.00
  YS02006558YS02006561    1.00   0.17  0.00  0.00  0.05  0.77  0.00  0.00  0.20  0.00
  YS02006561YS02001783    1.00   0.17  0.00  0.00  0.08  0.74  0.00  0.00  0.70  0.00
  YS02163301YS02001633    1.00   0.00  0.15  0.00  0.85  0.00  0.00  0.00  0.00  0.00
  YS02163601YS02164001    1.00   0.00  0.08  0.00  0.92  0.00  0.00  0.00  0.00  0.00
  YS02164001YS02001641    1.00   0.01  0.07  0.00  0.92  0.00  0.00  0.00  0.06  0.00
  
  
  *************************
  Conduit Surcharge Summary
  *************************
  
  ----------------------------------------------------------------------------
                                                           Hours        Hours 
                         --------- Hours Full --------   Above Full   Capacity
  Conduit                Both Ends  Upstream  Dnstream   Normal Flow   Limited
  ----------------------------------------------------------------------------
  WS02003072WS02003073        0.01      0.01      0.01      0.32         0.01
  WS02004404WS02004405        0.01      0.01      0.01      2.04         0.01
  WS02004405WS02004406        0.01      0.01      0.01      0.08         0.01
  WS02006109WS02006110        0.22      0.22      1.15      0.27         0.01
  WS02006110WS02006113        0.01      0.01      1.14      0.01         0.01
  WS02006111WS02006112        0.01      0.01      1.39      0.01         0.01
  WS02006112WS02006115        0.01      0.01      0.12      0.01         0.01
  WS02006228WS02006109        1.13      1.15      1.13      1.76         1.13
  WS02006229WS02006228        1.13      1.14      1.13      1.44         1.13
  WS02006230WS02006229        1.22      1.33      1.22      2.34         1.22
  WS02006231WS02006230        0.22      0.22      0.30      2.15         0.01
  WS02006232WS02006231        0.28      0.28      1.16      0.31         0.01
  WS02006234WS02006232        1.11      1.11      1.16      0.30         0.31
  WS02006235WS02006234        0.45      0.45      1.12      2.07         0.01
  WS02006238WS02006235        1.13      1.13      1.15      0.01         0.01
  WS02006239WS02006238        1.14      1.15      1.14      1.35         1.07
  WS02006240WS02006239        1.12      1.13      1.12      1.34         1.04
  WS02006242WS02006240        1.13      1.13      1.23      1.52         0.01
  WS02006243WS02006242        1.13      1.13      1.17      0.01         0.02
  WS02006245WS02006243        1.12      1.12      1.13      1.13         0.88
  WS02006247WS02006245        1.12      1.12      1.12      1.95         1.12
  WS02006248WS02006247        1.11      1.11      1.12      0.01         0.02
  WS02006249WS02006248        1.11      1.11      1.11      1.94         0.01
  WS02006251WS02006249        1.11      1.11      1.11      1.43         1.07
  WS02006252WS02006251        1.46      1.46      1.52      1.47         0.01
  WS02006256WS02006235        2.09      2.10      5.64      0.40         0.01
  YS02001580YS02001583        0.56      0.56      0.62      0.01         0.01
  YS02001583YS02001586        0.57      0.57      0.70      0.01         0.01
  YS02001586YS02001590        0.71      0.71      0.78      0.01         0.01
  YS02001590YS02001593        0.78      0.78      0.79      0.85         0.01
  YS02001593YS02001596        0.78      0.78      0.88      0.01         0.01
  YS02001596YS02001600        0.92      0.92      1.03      0.01         0.01
  YS02001600YS02001601        1.11      1.11      1.50      0.01         0.01
  YS02001601YS02001602        1.33      1.33      1.54      1.06         0.01
  YS02001602YS02001605        1.26      1.26      1.33      2.19         0.01
  YS02001605YS02001607        1.20      1.26      1.20      1.43         1.20
  YS02001607YS02001610        0.71      0.71      0.74      0.01         0.01
  YS02001610YS02001613        0.71      0.71      0.74      0.01         0.01
  YS02001613YS02001616        0.67      0.67      0.71      0.01         0.01
  YS02001616YS02001619        0.65      0.65      0.67      0.01         0.01
  YS02001619YS02001622        0.64      0.65      0.64      0.83         0.61
  YS02001622YS02001625        0.64      0.64      0.83      0.01         0.01
  YS02001625YS02001629        0.58      0.58      0.83      0.01         0.01
  YS02001629YS02163301        0.81      0.81      0.82      0.30         0.28
  YS02001633YS02163601        0.84      0.84      0.86      0.49         0.50
  YS02001641YS02001644        0.72      0.76      0.72      1.57         0.72
  YS02001644YS02001647        0.50      0.50      0.72      0.03         0.01
  YS02001647YS02001649        0.50      0.50      0.61      0.01         0.01
  YS02001649YS02001757        0.61      0.61      0.65      0.40         0.36
  YS02001652YS02001649        0.43      0.43      0.61      0.01         0.01
  YS02001655YS02001652        0.23      0.23      0.40      0.01         0.01
  YS02001658YS02001655        0.09      0.09      0.23      0.01         0.01
  YS02001661YS02001658        0.01      0.01      0.09      0.01         0.01
  YS02001664YS02001661        0.01      0.01      0.02      0.01         0.01
  YS02001745YS02001748        0.01      0.01      0.01      0.01         0.01
  YS02001748YS02001751        0.06      0.06      0.12      0.01         0.01
  YS02001751YS02001754        0.12      0.12      0.27      0.01         0.01
  YS02001754YS02001757        0.31      0.31      0.65      0.01         0.01
  YS02001757CaochengTiaoxuchi        0.48      0.65      1.11      0.40         0.21
  YS02001759YS02001757        0.54      0.54      0.65      0.01         0.02
  YS02001762YS02001759        0.50      0.50      0.54      0.01         0.03
  YS02001765YS02001762        0.46      0.46      0.50      0.01         0.01
  YS02001767YS02001765        0.42      0.42      0.46      0.04         0.05
  YS02001770YS02001767        0.42      0.43      0.42      0.51         0.35
  YS02001774YS02001770        0.40      0.40      0.49      0.01         0.01
  YS02001779YS02001774        0.28      0.28      0.49      0.01         0.01
  YS02001783YS02001784        0.49      0.52      0.49      0.64         0.49
  YS02001784YS02001785        0.40      0.49      0.40      0.87         0.40
  YS02001786YS02001788        0.01      0.40      0.01      0.74         0.01
  YS02001790YS02001791        0.01      0.01      0.01      0.48         0.01
  YS02001793JiankangQianchi        0.01      0.01      7.08      0.01         0.01
  YS02001882YS02001884        0.46      0.46      0.47      0.01         0.01
  YS02001884YS02001887        0.49      0.49      0.51      0.01         0.01
  YS02001887YS02001890        0.52      0.52      0.53      0.08         0.01
  YS02001890YS02001895        0.45      0.45      0.55      0.01         0.01
  YS02001895YS02001898        0.45      0.45      0.45      0.02         0.01
  YS02001898YS02001901        0.46      0.46      0.49      0.01         0.01
  YS02001901YS02001904        0.49      0.49      0.49      0.01         0.01
  YS02001904YS02001907        0.49      0.49      0.71      0.01         0.01
  YS02001907YS02006553        0.90      0.90      0.97      0.01         0.01
  YS02001910YS02001907        0.54      0.54      0.70      0.01         0.01
  YS02001915YS02001910        0.46      0.46      0.54      0.01         0.01
  YS02001918YS02001915        0.38      0.38      0.46      0.01         0.01
  YS02001920YS02001918        0.38      0.38      0.39      0.01         0.01
  YS02001923YS02001920        0.34      0.34      0.39      0.01         0.01
  YS02001926YS02001923        0.01      0.01      0.02      0.01         0.01
  YS02001929YS02001926        0.01      0.01      0.02      0.01         0.01
  YS02006553YS02006556        0.62      0.62      0.72      0.01         0.01
  YS02006556YS02006558        0.67      0.67      0.74      0.01         0.01
  YS02006558YS02006561        0.41      0.61      0.41      0.83         0.41
  YS02006561YS02001783        0.35      0.35      0.52      0.01         0.01
  YS02163301YS02001633        0.82      0.82      0.86      0.01         0.01
  YS02163601YS02164001        0.76      0.76      0.86      0.15         0.01
  YS02164001YS02001641        0.76      0.76      0.76      0.79         0.63
  
  
  ***************
  Pumping Summary
  ***************
  
  ---------------------------------------------------------------------------------------------------------
                                                  Min       Avg       Max     Total     Power    % Time Off
                        Percent   Number of      Flow      Flow      Flow    Volume     Usage    Pump Curve
  Pump                 Utilized   Start-Ups       LPS       LPS       LPS  10^6 ltr     Kw-hr    Low   High
  ---------------------------------------------------------------------------------------------------------
  CC-R1                   22.25          46      0.00    683.00    683.00     4.376     77.50    0.0   44.2
  CC-R2                   23.29          45      0.00    683.00    683.00     4.581     81.08    0.0   44.6
  CC-S1                   25.97          44      0.00    200.00    200.00     1.496      9.32    0.0    0.0
  CC-S2                   18.75           4      0.00    200.00    200.00     1.080      6.59    0.0    0.0
  JK-R1                    1.14           4      0.00   1000.00   1000.00     0.327      2.78    0.0    0.0
  JK-R2                   11.62          47      0.00   1000.00   1000.00     3.346     29.23    0.0    0.0
  JK-S                     5.03           9      0.00    300.00    300.00     0.434      7.24    0.0    0.0
  

  Analysis begun on:  Mon Feb 24 09:45:53 2025
  Analysis ended on:  Mon Feb 24 09:45:55 2025
  Total elapsed time: 00:00:02