
  EPA STORM WATER MANAGEMENT MODEL - VERSION 5.2 (Build 5.2.4)
  PYSWMM TOOLKIT API - VERSION v1.0 (2023-11-27)
  ------------------------------------------------------------

  WARNING 04: minimum elevation drop used for Conduit WS02004404WS02004405
  WARNING 03: negative offset ignored for Link YS02001904YS02001907
  
  ****************
  Analysis Options
  ****************
  Flow Units ............... LPS
  Process Models:
    Rainfall/Runoff ........ YES
    RDII ................... NO
    Snowmelt ............... NO
    Groundwater ............ NO
    Flow Routing ........... YES
    Ponding Allowed ........ NO
    Water Quality .......... NO
  Infiltration Method ...... HORTON
  Flow Routing Method ...... DYNWAVE
  Surcharge Method ......... EXTRAN
  Starting Date ............ 08/28/2015 08:00:00
  Ending Date .............. 08/28/2015 16:00:00
  Antecedent Dry Days ...... 8.0
  Report Time Step ......... 00:01:00
  Wet Time Step ............ 00:01:00
  Dry Time Step ............ 00:01:00
  Routing Time Step ........ 30.00 sec
  Variable Time Step ....... YES
  Maximum Trials ........... 8
  Number of Threads ........ 4
  Head Tolerance ........... 0.001500 m
  
  
  **************************        Volume         Depth
  Runoff Quantity Continuity     hectare-m            mm
  **************************     ---------       -------
  Total Precipitation ......         2.896        87.318
  Evaporation Loss .........         0.000         0.000
  Infiltration Loss ........         0.102         3.069
  Surface Runoff ...........         2.762        83.275
  Final Storage ............         0.033         0.995
  Continuity Error (%) .....        -0.025
  
  
  **************************        Volume        Volume
  Flow Routing Continuity        hectare-m      10^6 ltr
  **************************     ---------     ---------
  Dry Weather Inflow .......         0.025         0.251
  Wet Weather Inflow .......         2.763        27.628
  Groundwater Inflow .......         0.000         0.000
  RDII Inflow ..............         0.000         0.000
  External Inflow ..........         0.083         0.834
  External Outflow .........         1.976        19.756
  Flooding Loss ............         0.967         9.668
  Evaporation Loss .........         0.000         0.000
  Exfiltration Loss ........         0.000         0.000
  Initial Stored Volume ....         0.243         2.431
  Final Stored Volume ......         0.181         1.810
  Continuity Error (%) .....        -0.291
  
  
  *************************
  Highest Continuity Errors
  *************************
  Node YS02001583 (-10.26%)
  Node YS02001884 (5.04%)
  Node WS02006256 (-1.69%)
  
  
  ***************************
  Time-Step Critical Elements
  ***************************
  Link WS02006252WS02006251 (32.59%)
  Link WS02004404WS02004405 (23.15%)
  Link WS02006238WS02006235 (8.82%)
  Link YS02001791YS02001793 (8.23%)
  Link YS02006556YS02006558 (6.59%)
  
  
  ********************************
  Highest Flow Instability Indexes
  ********************************
  Link WS02006113WS02006111 (36)
  Link WS02006111WS02006112 (19)
  Link WS02004404WS02004405 (16)
  Link YS02001602YS02001605 (16)
  Link WS02006252WS02006251 (15)
  
  
  *********************************
  Most Frequent Nonconverging Nodes
  *********************************
  Node CC-1 (15.37%)
  Node CC-2 (15.37%)
  Node JK-1 (15.37%)
  Node JK-2 (15.37%)
  Node WSC (15.37%)
  
  
  *************************
  Routing Time Step Summary
  *************************
  Minimum Time Step           :     0.02 sec
  Average Time Step           :     2.72 sec
  Maximum Time Step           :     6.43 sec
  % of Time in Steady State   :     0.00
  Average Iterations per Step :     3.36
  % of Steps Not Converging   :    15.37
  Time Step Frequencies       :
     30.000 - 13.228 sec      :     0.00 %
     13.228 -  5.833 sec      :    19.39 %
      5.833 -  2.572 sec      :    21.93 %
      2.572 -  1.134 sec      :    21.00 %
      1.134 -  0.500 sec      :    37.68 %
  
  
  ***************************
  Subcatchment Runoff Summary
  ***************************
  
  ------------------------------------------------------------------------------------------------------------------------------
                            Total      Total      Total      Total     Imperv       Perv      Total       Total     Peak  Runoff
                           Precip      Runon       Evap      Infil     Runoff     Runoff     Runoff      Runoff   Runoff   Coeff
  Subcatchment                 mm         mm         mm         mm         mm         mm         mm    10^6 ltr      LPS
  ------------------------------------------------------------------------------------------------------------------------------
  sub60                     87.32       0.00       0.00       1.86      75.65       8.62      84.27        1.11   682.43   0.965
  sub61                     87.32       0.00       0.00       2.69      71.35      12.15      83.51        1.53   943.71   0.956
  sub62                     87.32       0.00       0.00       1.24      79.05       5.75      84.80        2.32  1331.03   0.971
  sub63                     87.32       0.00       0.00       4.94      61.03      20.38      81.42        1.85  1048.13   0.932
  sub64                     87.32       0.00       0.00       2.50      73.02      10.60      83.62        2.01  1081.05   0.958
  sub65                     87.32       0.00       0.00       2.17      74.72       9.19      83.91        2.31  1207.61   0.961
  sub66                     87.32       0.00       0.00       6.06      60.92      19.26      80.19        3.74  1572.04   0.918
  sub67                     87.32       0.00       0.00       1.19      79.10       5.79      84.89        1.58  1032.23   0.972
  sub68                     87.32       0.00       0.00       2.23      73.91      10.00      83.91        2.31  1365.14   0.961
  sub69                     87.32       0.00       0.00       1.99      74.11      11.11      85.22        3.16  1611.79   0.976
  sub70                     87.32       0.00       0.00       6.56      57.47      23.13      80.60        2.33   885.04   0.923
  sub71                     87.32       0.00       0.00       1.27      79.01       5.72      84.73        2.22  1171.90   0.970
  sub72                     87.32       0.00       0.00       1.13      79.81       4.98      84.79        1.17   565.51   0.971
  
  
  ******************
  Node Depth Summary
  ******************
  
  ---------------------------------------------------------------------------------
                                 Average  Maximum  Maximum  Time of Max    Reported
                                   Depth    Depth      HGL   Occurrence   Max Depth
  Node                 Type       Meters   Meters   Meters  days hr:min      Meters
  ---------------------------------------------------------------------------------
  WS02003060           JUNCTION     0.20     0.37     5.30     0  02:08        0.37
  WS02003066           JUNCTION     0.17     0.29     5.84     0  02:08        0.29
  WS02003067           JUNCTION     0.46     0.68     6.00     0  02:08        0.68
  WS02003069           JUNCTION     0.22     0.41     5.00     0  02:09        0.41
  WS02003072           JUNCTION     0.28     0.48     4.85     0  02:10        0.48
  WS02003073           JUNCTION     0.16     0.29     4.35     0  02:11        0.29
  WS02004401           JUNCTION     0.53     0.85     6.85     0  02:06        0.85
  WS02004402           JUNCTION     0.57     0.88     6.84     0  02:06        0.87
  WS02004403           JUNCTION     0.59     0.90     6.83     0  02:06        0.89
  WS02004404           JUNCTION     0.67     0.98     6.83     0  02:06        0.97
  WS02004405           JUNCTION     0.66     0.95     6.80     0  02:06        0.93
  WS02004406           JUNCTION     0.67     0.94     6.77     0  02:06        0.94
  WS02004407           JUNCTION     0.14     0.29     6.60     0  02:06        0.29
  WS02004409           JUNCTION     0.33     0.64     6.41     0  02:07        0.64
  WS02004410           JUNCTION     0.35     0.65     6.37     0  02:07        0.65
  WS02004411           JUNCTION     0.38     0.66     6.34     0  02:08        0.66
  WS02004412           JUNCTION     0.40     0.67     6.31     0  02:08        0.67
  WS02004413           JUNCTION     0.56     0.84     6.31     0  02:08        0.83
  WS02006109           JUNCTION     0.58     1.14     7.76     0  01:58        0.98
  WS02006110           JUNCTION     0.59     1.16     7.75     0  01:58        0.94
  WS02006111           JUNCTION     0.15     0.29     6.99     0  02:05        0.29
  WS02006112           JUNCTION     0.68     1.10     6.98     0  02:03        1.02
  WS02006113           JUNCTION     0.23     0.46     7.35     0  01:54        0.46
  WS02006115           JUNCTION     0.42     0.74     6.88     0  02:05        0.74
  WS02006116           JUNCTION     0.50     0.82     6.86     0  02:06        0.82
  WS02006228           JUNCTION     0.57     1.22     7.87     0  01:58        1.05
  WS02006229           JUNCTION     0.54     1.28     7.97     0  01:58        1.07
  WS02006230           JUNCTION     0.53     1.49     8.24     0  01:58        1.24
  WS02006231           JUNCTION     0.34     1.18     8.30     0  01:58        0.95
  WS02006232           JUNCTION     0.47     1.60     8.64     0  03:15        1.13
  WS02006234           JUNCTION     0.38     1.92     9.08     0  03:15        1.14
  WS02006235           JUNCTION     0.42     1.88     9.04     0  03:15        1.31
  WS02006238           JUNCTION     0.45     1.91     9.05     0  03:15        1.36
  WS02006239           JUNCTION     0.42     1.83     9.04     0  03:15        1.39
  WS02006240           JUNCTION     0.40     1.70     9.00     0  03:15        1.38
  WS02006242           JUNCTION     0.46     1.55     8.82     0  01:48        1.45
  WS02006243           JUNCTION     0.38     1.39     8.81     0  03:15        1.33
  WS02006245           JUNCTION     0.39     1.31     8.79     0  03:15        1.27
  WS02006247           JUNCTION     0.41     1.26     8.76     0  03:15        1.25
  WS02006248           JUNCTION     0.37     1.10     8.69     0  01:58        1.10
  WS02006249           JUNCTION     0.41     1.09     8.69     0  01:49        1.09
  WS02006251           JUNCTION     0.40     1.35     9.02     0  01:49        1.20
  WS02006252           JUNCTION     0.30     1.50     9.74     0  00:00        0.77
  WS02006256           JUNCTION     0.80     2.35     9.28     0  00:00        2.35
  WSF200               JUNCTION     0.14     0.28     5.51     0  02:08        0.28
  YS02001580           JUNCTION     0.20     1.05     9.59     0  01:32        0.77
  YS02001583           JUNCTION     0.23     1.14     9.64     0  01:33        0.82
  YS02001586           JUNCTION     0.36     1.13     9.30     0  01:32        1.13
  YS02001590           JUNCTION     0.49     1.40     9.26     0  01:31        1.38
  YS02001593           JUNCTION     0.41     1.46     9.32     0  01:31        1.29
  YS02001596           JUNCTION     0.55     1.69     9.11     0  01:32        1.65
  YS02001600           JUNCTION     0.65     1.87     9.00     0  01:32        1.87
  YS02001601           JUNCTION     0.86     2.06     8.90     0  01:31        2.06
  YS02001602           JUNCTION     0.75     1.87     8.77     0  01:32        1.87
  YS02001605           JUNCTION     0.70     1.78     8.68     0  01:32        1.78
  YS02001607           JUNCTION     0.65     1.68     8.53     0  01:32        1.68
  YS02001610           JUNCTION     0.70     1.68     8.48     0  01:33        1.68
  YS02001613           JUNCTION     0.66     1.69     8.53     0  01:33        1.68
  YS02001616           JUNCTION     0.59     1.61     8.52     0  01:32        1.61
  YS02001619           JUNCTION     0.57     1.61     8.54     0  01:32        1.61
  YS02001622           JUNCTION     0.55     1.62     8.52     0  01:33        1.60
  YS02001625           JUNCTION     0.81     1.78     8.38     0  01:33        1.78
  YS02001629           JUNCTION     0.71     1.85     8.40     0  01:33        1.85
  YS02001633           JUNCTION     0.79     2.08     8.53     0  01:34        2.08
  YS02001641           JUNCTION     0.75     1.99     8.43     0  01:35        1.95
  YS02001644           JUNCTION     0.74     1.92     8.35     0  01:34        1.92
  YS02001647           JUNCTION     0.51     1.81     8.42     0  01:36        1.80
  YS02001649           JUNCTION     0.58     2.05     8.44     0  01:36        2.05
  YS02001652           JUNCTION     0.45     2.16     8.76     0  01:35        1.83
  YS02001655           JUNCTION     0.36     2.20     9.05     0  01:35        1.63
  YS02001658           JUNCTION     0.27     2.30     9.44     0  01:35        1.42
  YS02001661           JUNCTION     0.25     2.46     9.86     0  01:36        1.31
  YS02001664           JUNCTION     0.11     2.31    10.23     0  01:36        0.86
  YS02001745           JUNCTION     0.13     2.35     9.87     0  01:36        0.82
  YS02001748           JUNCTION     0.24     2.27     9.35     0  01:36        1.26
  YS02001751           JUNCTION     0.30     2.20     9.08     0  01:36        1.47
  YS02001754           JUNCTION     0.39     2.20     8.81     0  01:36        1.76
  YS02001757           JUNCTION     0.59     2.21     8.47     0  01:36        2.10
  YS02001759           JUNCTION     0.53     2.21     8.57     0  01:37        2.21
  YS02001762           JUNCTION     0.52     2.15     8.55     0  01:36        2.13
  YS02001765           JUNCTION     0.49     2.10     8.55     0  01:36        2.03
  YS02001767           JUNCTION     0.49     2.03     8.52     0  01:35        1.99
  YS02001770           JUNCTION     0.50     1.95     8.44     0  01:35        1.95
  YS02001774           JUNCTION     0.57     2.02     8.45     0  01:35        2.02
  YS02001779           JUNCTION     0.38     1.68     8.37     0  01:35        1.68
  YS02001783           JUNCTION     0.39     1.65     7.80     0  01:34        1.25
  YS02001784           JUNCTION     0.39     1.49     7.56     0  01:34        1.14
  YS02001786           JUNCTION     0.32     1.18     7.21     0  01:34        0.89
  YS02001788           JUNCTION     0.23     0.62     6.60     0  01:35        0.62
  YS02001790           JUNCTION     0.27     0.72     6.37     0  01:50        0.72
  YS02001791           JUNCTION     0.17     0.44     5.91     0  01:39        0.43
  YS02001793           JUNCTION     0.09     0.28     5.11     0  01:52        0.27
  YS02001882           JUNCTION     0.50     1.83     8.55     0  01:33        1.79
  YS02001884           JUNCTION     0.59     1.93     8.55     0  01:33        1.90
  YS02001887           JUNCTION     0.66     2.00     8.54     0  01:37        2.00
  YS02001890           JUNCTION     0.69     1.81     8.32     0  01:33        1.81
  YS02001895           JUNCTION     0.46     1.75     8.50     0  01:33        1.56
  YS02001898           JUNCTION     0.47     1.77     8.51     0  01:33        1.56
  YS02001901           JUNCTION     0.58     1.87     8.48     0  01:33        1.67
  YS02001904           JUNCTION     0.56     1.74     8.37     0  01:33        1.64
  YS02001907           JUNCTION     0.87     1.96     8.25     0  01:33        1.96
  YS02001910           JUNCTION     0.69     2.03     8.54     0  01:33        1.96
  YS02001915           JUNCTION     0.51     2.00     8.72     0  01:33        1.90
  YS02001918           JUNCTION     0.33     1.81     8.88     0  01:34        1.59
  YS02001920           JUNCTION     0.41     2.14     9.15     0  01:35        1.67
  YS02001923           JUNCTION     0.27     2.03     9.29     0  01:35        1.44
  YS02001926           JUNCTION     0.28     1.90     9.35     0  01:35        1.28
  YS02001929           JUNCTION     0.18     1.78     9.47     0  01:35        1.05
  YS02006553           JUNCTION     0.87     2.09     8.38     0  01:34        2.02
  YS02006556           JUNCTION     0.85     2.21     8.52     0  01:34        2.12
  YS02006558           JUNCTION     0.89     2.29     8.56     0  01:34        2.24
  YS02006561           JUNCTION     0.26     1.50     8.16     0  01:34        0.91
  YS02163301           JUNCTION     0.73     1.96     8.48     0  01:34        1.95
  YS02163601           JUNCTION     0.82     2.08     8.48     0  01:34        2.05
  YS02164001           JUNCTION     0.74     2.01     8.47     0  01:35        1.96
  CC-1                 OUTFALL      0.00     0.00     0.00     0  00:00        0.00
  CC-2                 OUTFALL      0.00     0.00     0.00     0  00:00        0.00
  JK-1                 OUTFALL      0.00     0.00     0.00     0  00:00        0.00
  JK-2                 OUTFALL      0.00     0.00     0.00     0  00:00        0.00
  WSC                  OUTFALL      0.16     0.29     0.96     0  02:11        0.28
  CC-storage           STORAGE      0.82     1.60     7.10     0  02:24        1.60
  JK-storage           STORAGE      1.85     4.00     4.80     0  02:08        4.00
  
  
  *******************
  Node Inflow Summary
  *******************
  
  -------------------------------------------------------------------------------------------------
                                  Maximum  Maximum                  Lateral       Total        Flow
                                  Lateral    Total  Time of Max      Inflow      Inflow     Balance
                                   Inflow   Inflow   Occurrence      Volume      Volume       Error
  Node                 Type           LPS      LPS  days hr:min    10^6 ltr    10^6 ltr     Percent
  -------------------------------------------------------------------------------------------------
  WS02003060           JUNCTION     16.53   514.34     0  02:08       0.476        3.75       0.053
  WS02003066           JUNCTION      0.00   495.66     0  02:08           0        3.28       0.037
  WS02003067           JUNCTION      0.00   495.49     0  02:08           0        3.28       0.122
  WS02003069           JUNCTION      0.32   516.11     0  02:09     0.00922        3.76       0.094
  WS02003072           JUNCTION      0.00   514.66     0  02:10           0        3.75       0.170
  WS02003073           JUNCTION      1.82   514.00     0  02:10      0.0524         3.8       0.132
  WS02004401           JUNCTION      0.00   533.61     0  01:55           0        3.38       0.296
  WS02004402           JUNCTION      0.00   529.89     0  01:55           0        3.37       0.300
  WS02004403           JUNCTION      0.00   522.02     0  02:00           0        3.36       0.295
  WS02004404           JUNCTION      0.16   525.13     0  02:05     0.00467        3.35       0.251
  WS02004405           JUNCTION      0.04   571.05     0  02:06      0.0011        3.34       0.330
  WS02004406           JUNCTION      0.00   516.15     0  02:06           0        3.33       0.618
  WS02004407           JUNCTION      0.00   510.84     0  02:06           0        3.31       0.028
  WS02004409           JUNCTION      0.00   509.47     0  02:06           0        3.31       0.067
  WS02004410           JUNCTION      0.00   506.52     0  02:07           0        3.31       0.121
  WS02004411           JUNCTION      0.00   504.84     0  02:07           0        3.31       0.157
  WS02004412           JUNCTION      0.00   502.15     0  02:07           0         3.3       0.213
  WS02004413           JUNCTION      0.00   497.64     0  02:07           0        3.29       0.391
  WS02006109           JUNCTION      1.23   561.68     0  01:58      0.0354        3.42       0.242
  WS02006110           JUNCTION      0.00   562.79     0  01:58           0        3.42       0.184
  WS02006111           JUNCTION      0.00   560.17     0  01:54           0        3.41       0.029
  WS02006112           JUNCTION      0.00   542.79     0  02:05           0        3.41       0.582
  WS02006113           JUNCTION      0.00   567.92     0  01:58           0        3.41       0.041
  WS02006115           JUNCTION      0.00   550.24     0  02:10           0        3.39       0.187
  WS02006116           JUNCTION      0.00   536.77     0  01:55           0        3.38       0.122
  WS02006228           JUNCTION      0.00   558.43     0  01:58           0        3.39       0.069
  WS02006229           JUNCTION      0.00   558.99     0  01:58           0        3.39       0.128
  WS02006230           JUNCTION     10.28   584.67     0  01:58       0.296         3.4       0.148
  WS02006231           JUNCTION      0.00   577.57     0  01:58           0         3.1       0.019
  WS02006232           JUNCTION      0.00   576.66     0  01:58           0        3.11       0.142
  WS02006234           JUNCTION      0.00   571.57     0  01:58           0         3.1      -0.141
  WS02006235           JUNCTION      0.00   562.00     0  01:58           0        3.12       0.164
  WS02006238           JUNCTION      0.00   424.76     0  02:10           0        2.82      -0.189
  WS02006239           JUNCTION      0.00   423.13     0  02:10           0        2.81      -0.192
  WS02006240           JUNCTION      0.00   420.08     0  02:10           0         2.8      -0.041
  WS02006242           JUNCTION      0.00   420.13     0  02:10           0         2.8      -0.015
  WS02006243           JUNCTION      0.00   420.25     0  02:10           0         2.8      -0.196
  WS02006245           JUNCTION      0.00   420.65     0  02:10           0        2.81       0.402
  WS02006247           JUNCTION      0.00   420.66     0  02:10           0        2.81      -0.011
  WS02006248           JUNCTION      0.00   421.26     0  02:10           0         2.8      -0.074
  WS02006249           JUNCTION      0.00   459.02     0  00:00           0        2.85       0.454
  WS02006251           JUNCTION      0.08   406.03     0  01:49     0.00222        2.85       0.041
  WS02006252           JUNCTION      0.00   400.00     0  00:00           0        2.83      -0.612
  WS02006256           JUNCTION      0.00   300.00     0  00:00           0       0.412      -1.660
  WSF200               JUNCTION      0.00   495.64     0  02:08           0        3.27       0.013
  YS02001580           JUNCTION      0.00   156.29     0  01:32           0     0.00483       2.834
  YS02001583           JUNCTION      0.00   258.42     0  01:33           0      0.0153      -9.302
  YS02001586           JUNCTION    885.04   885.04     0  01:42        2.33        2.34       0.059
  YS02001590           JUNCTION      0.00   318.38     0  02:08           0        1.63      -0.037
  YS02001593           JUNCTION      0.00   318.48     0  02:08           0        1.63      -0.003
  YS02001596           JUNCTION      0.00   317.98     0  02:08           0        1.63      -0.011
  YS02001600           JUNCTION      0.00   318.45     0  02:08           0        1.63      -0.009
  YS02001601           JUNCTION   1611.79  1929.30     0  01:40        3.16        4.79      -0.006
  YS02001602           JUNCTION      0.00   574.42     0  01:32           0        2.65       0.008
  YS02001605           JUNCTION      0.00   574.39     0  01:32           0        2.48       0.006
  YS02001607           JUNCTION      0.00   574.29     0  01:32           0        2.48       0.068
  YS02001610           JUNCTION      0.00   890.50     0  01:42           0        2.97       0.053
  YS02001613           JUNCTION      0.00   562.20     0  01:32           0        2.29       0.066
  YS02001616           JUNCTION      0.00   579.66     0  01:32           0        2.29       0.015
  YS02001619           JUNCTION   1572.04  1572.04     0  01:42        3.74        5.54      -0.007
  YS02001622           JUNCTION      0.00  1020.46     0  01:41           0        5.04      -0.012
  YS02001625           JUNCTION      0.00  1441.09     0  01:43           0        5.36       0.153
  YS02001629           JUNCTION      0.00   963.07     0  01:33           0        4.07       0.008
  YS02001633           JUNCTION   1207.81  1444.03     0  01:34        2.32        5.95       0.051
  YS02001641           JUNCTION      0.00  1443.56     0  01:34           0        5.52       0.047
  YS02001644           JUNCTION   1081.09  1954.36     0  01:34        2.01        7.53       0.036
  YS02001647           JUNCTION      0.00  1954.07     0  01:34           0         6.8       0.006
  YS02001649           JUNCTION      0.00  2245.80     0  01:35           0        8.66      -0.001
  YS02001652           JUNCTION      0.00  1083.68     0  01:37           0        1.85      -0.075
  YS02001655           JUNCTION      0.15  1083.16     0  01:37     0.00443        1.85      -0.041
  YS02001658           JUNCTION      0.00  1082.94     0  01:37           0        1.85      -0.041
  YS02001661           JUNCTION      0.00  1084.81     0  01:37           0        1.85       0.004
  YS02001664           JUNCTION   1048.13  1048.13     0  01:39        1.85        1.85      -0.017
  YS02001745           JUNCTION    682.43   772.22     0  01:36        1.11        1.11       0.157
  YS02001748           JUNCTION      0.04   843.75     0  01:35      0.0013        1.11      -0.357
  YS02001751           JUNCTION      0.01   691.36     0  01:37    0.000317        1.12       0.063
  YS02001754           JUNCTION      0.26   691.71     0  01:37     0.00749        1.13      -0.130
  YS02001757           JUNCTION      0.00  3643.21     0  01:37           0        13.3       0.043
  YS02001759           JUNCTION    943.75  1589.59     0  01:36        1.53         3.5      -0.014
  YS02001762           JUNCTION      0.00   833.13     0  01:36           0        1.96      -0.011
  YS02001765           JUNCTION      0.00   834.19     0  01:36           0        1.96      -0.007
  YS02001767           JUNCTION      0.54   834.89     0  01:36      0.0154        1.96      -0.007
  YS02001770           JUNCTION   1331.18  1331.18     0  01:39        2.33        2.37      -0.021
  YS02001774           JUNCTION      0.00   775.42     0  01:39           0       0.442       0.190
  YS02001779           JUNCTION      0.01   775.46     0  01:39    0.000144       0.397      -0.173
  YS02001783           JUNCTION      0.00  1172.91     0  01:37           0        4.93       0.005
  YS02001784           JUNCTION      1.06  1174.06     0  01:37      0.0305        4.96       0.010
  YS02001786           JUNCTION      0.06  1174.66     0  01:37     0.00162        4.96       0.013
  YS02001788           JUNCTION      0.07  1174.30     0  01:37     0.00204        4.96       0.006
  YS02001790           JUNCTION      0.15  1179.64     0  01:35     0.00446        4.97       0.032
  YS02001791           JUNCTION      0.00  1286.10     0  01:50           0        4.97      -0.035
  YS02001793           JUNCTION      0.00  1244.20     0  01:50           0        4.97       0.006
  YS02001882           JUNCTION      0.00   113.44     0  01:33           0       0.013       4.211
  YS02001884           JUNCTION      0.00   148.12     0  01:33           0       0.049       5.311
  YS02001887           JUNCTION   1032.68  1032.82     0  01:38        1.59        1.63       0.267
  YS02001890           JUNCTION      0.00  1033.01     0  01:38           0        1.58       0.318
  YS02001895           JUNCTION      0.00   566.28     0  01:34           0        1.35       0.121
  YS02001898           JUNCTION      0.00   565.15     0  01:34           0        1.35      -0.003
  YS02001901           JUNCTION      0.00   562.87     0  01:34           0        1.35       0.247
  YS02001904           JUNCTION      0.00   561.32     0  01:34           0        1.36       0.198
  YS02001907           JUNCTION      0.00  2438.74     0  01:39           0        4.87       0.342
  YS02001910           JUNCTION      0.00  1743.38     0  01:40           0        3.46       0.204
  YS02001915           JUNCTION   1171.92  1743.37     0  01:40        2.22        3.52       0.041
  YS02001918           JUNCTION      0.00   677.09     0  01:34           0        1.33       0.005
  YS02001920           JUNCTION      2.87   687.65     0  01:34      0.0827        1.31       0.080
  YS02001923           JUNCTION      0.04   915.25     0  01:34     0.00109        1.21      -0.106
  YS02001926           JUNCTION      0.05  1135.89     0  01:34      0.0015        1.19      -0.088
  YS02001929           JUNCTION    565.51   903.33     0  01:35        1.17        1.17      -0.021
  YS02006553           JUNCTION      0.00   791.71     0  02:06           0        2.75       0.419
  YS02006556           JUNCTION      0.00   792.48     0  02:06           0        2.76       0.286
  YS02006558           JUNCTION   1366.02  1366.02     0  01:39        2.33        5.02       0.069
  YS02006561           JUNCTION      0.00  1181.84     0  01:34           0        4.93      -0.001
  YS02163301           JUNCTION      0.00   912.15     0  01:34           0        4.06       0.028
  YS02163601           JUNCTION      0.11  1444.02     0  01:34     0.00317        5.52       0.084
  YS02164001           JUNCTION      0.00  1444.02     0  01:34           0        5.52       0.035
  CC-1                 OUTFALL       0.00   683.00     0  00:00           0        5.66       0.000
  CC-2                 OUTFALL       0.00   683.00     0  00:00           0        5.64       0.000
  JK-1                 OUTFALL       0.00  1000.00     0  00:00           0      0.0634       0.000
  JK-2                 OUTFALL       0.00  1000.00     0  00:00           0         4.6       0.000
  WSC                  OUTFALL       0.00   510.79     0  02:11           0         3.8       0.000
  CC-storage           STORAGE       0.00  3644.35     0  01:37           0        15.5      -0.208
  JK-storage           STORAGE       0.00  1219.43     0  01:35           0        5.12      -0.306
  
  
  **********************
  Node Surcharge Summary
  **********************
  
  Surcharging occurs when water rises above the top of the highest conduit.
  ---------------------------------------------------------------------
                                               Max. Height   Min. Depth
                                   Hours       Above Crown    Below Rim
  Node                 Type      Surcharged         Meters       Meters
  ---------------------------------------------------------------------
  WS02006109           JUNCTION        1.48          0.325        1.495
  WS02006110           JUNCTION        0.07          0.253        1.597
  WS02006112           JUNCTION        0.10          0.096        1.584
  WS02006228           JUNCTION        1.48          0.388        1.812
  WS02006229           JUNCTION        1.48          0.477        1.973
  WS02006230           JUNCTION        0.08          0.412        1.158
  WS02006231           JUNCTION        0.15          0.468        1.062
  WS02006232           JUNCTION        1.49          0.901        0.579
  WS02006234           JUNCTION        0.33          1.203        0.037
  WS02006235           JUNCTION        1.46          1.169        0.121
  WS02006238           JUNCTION        1.48          1.187        0.243
  WS02006239           JUNCTION        1.47          1.087        0.203
  WS02006240           JUNCTION        1.48          0.994        0.396
  WS02006242           JUNCTION        1.48          0.820        0.000
  WS02006243           JUNCTION        1.46          0.681        0.089
  WS02006245           JUNCTION        1.45          0.599        0.251
  WS02006247           JUNCTION        1.45          0.549        0.211
  WS02006248           JUNCTION        1.44          0.380        0.000
  WS02006249           JUNCTION        1.44          0.390        0.000
  WS02006251           JUNCTION        0.17          0.316        0.864
  WS02006252           JUNCTION        1.70          1.100        0.000
  WS02006256           JUNCTION        5.43          2.050        0.000
  YS02001580           JUNCTION        0.87          0.450        0.000
  YS02001583           JUNCTION        0.88          0.500        0.000
  YS02001586           JUNCTION        1.03          0.510        0.000
  YS02001590           JUNCTION        1.12          0.750        0.000
  YS02001593           JUNCTION        1.12          0.840        0.000
  YS02001596           JUNCTION        1.24          0.960        0.110
  YS02001600           JUNCTION        1.42          1.190        0.000
  YS02001601           JUNCTION        1.73          1.440        0.000
  YS02001602           JUNCTION        1.66          1.270        0.000
  YS02001605           JUNCTION        1.62          1.180        0.000
  YS02001607           JUNCTION        1.09          0.680        0.000
  YS02001610           JUNCTION        1.12          0.680        0.000
  YS02001613           JUNCTION        1.08          0.686        0.014
  YS02001616           JUNCTION        1.03          0.610        0.000
  YS02001619           JUNCTION        1.02          0.610        0.000
  YS02001622           JUNCTION        1.01          0.620        0.000
  YS02001625           JUNCTION        1.22          0.780        0.000
  YS02001629           JUNCTION        0.96          0.470        0.000
  YS02001633           JUNCTION        1.25          1.060        0.000
  YS02001641           JUNCTION        1.19          0.988        0.112
  YS02001644           JUNCTION        1.16          0.920        0.000
  YS02001647           JUNCTION        0.91          0.806        0.094
  YS02001649           JUNCTION        1.07          1.050        0.000
  YS02001652           JUNCTION        0.80          1.130        0.000
  YS02001655           JUNCTION        0.55          1.200        0.000
  YS02001658           JUNCTION        0.29          1.300        0.000
  YS02001661           JUNCTION        0.10          1.390        0.000
  YS02001664           JUNCTION        0.01          1.310        0.000
  YS02001745           JUNCTION        0.01          1.350        0.000
  YS02001748           JUNCTION        0.18          1.190        0.000
  YS02001751           JUNCTION        0.37          1.200        0.000
  YS02001754           JUNCTION        0.65          1.150        0.000
  YS02001757           JUNCTION        1.15          1.210        0.000
  YS02001759           JUNCTION        1.02          1.210        0.000
  YS02001762           JUNCTION        0.99          1.150        0.000
  YS02001765           JUNCTION        0.92          1.100        0.000
  YS02001767           JUNCTION        0.88          1.030        0.000
  YS02001770           JUNCTION        0.83          0.920        0.000
  YS02001774           JUNCTION        0.96          1.023        0.027
  YS02001779           JUNCTION        0.63          0.680        0.000
  YS02001783           JUNCTION        0.73          0.855        0.745
  YS02001784           JUNCTION        0.70          0.688        0.802
  YS02001786           JUNCTION        0.59          0.384        1.046
  YS02001882           JUNCTION        0.67          0.830        0.000
  YS02001884           JUNCTION        0.68          0.870        0.000
  YS02001887           JUNCTION        0.72          0.950        0.000
  YS02001890           JUNCTION        0.73          0.760        0.000
  YS02001895           JUNCTION        0.65          0.750        0.000
  YS02001898           JUNCTION        0.65          0.740        0.000
  YS02001901           JUNCTION        0.70          0.870        0.000
  YS02001904           JUNCTION        0.69          0.741        0.109
  YS02001907           JUNCTION        0.95          0.950        0.000
  YS02001910           JUNCTION        0.77          1.029        0.071
  YS02001915           JUNCTION        0.67          1.000        0.000
  YS02001918           JUNCTION        0.57          0.810        0.000
  YS02001920           JUNCTION        0.58          1.140        0.000
  YS02001923           JUNCTION        0.21          0.820        0.000
  YS02001926           JUNCTION        0.24          0.900        0.000
  YS02001929           JUNCTION        0.05          0.780        0.000
  YS02006553           JUNCTION        0.98          1.093        0.097
  YS02006556           JUNCTION        0.86          1.172        0.178
  YS02006558           JUNCTION        0.85          1.195        0.205
  YS02006561           JUNCTION        0.53          0.696        0.454
  YS02163301           JUNCTION        1.23          0.959        0.071
  YS02163601           JUNCTION        1.28          1.080        0.000
  YS02164001           JUNCTION        1.19          1.008        0.092
  
  
  *********************
  Node Flooding Summary
  *********************
  
  Flooding refers to all water that overflows a node, whether it ponds or not.
  --------------------------------------------------------------------------
                                                             Total   Maximum
                                 Maximum   Time of Max       Flood    Ponded
                        Hours       Rate    Occurrence      Volume     Depth
  Node                 Flooded       LPS   days hr:min    10^6 ltr    Meters
  --------------------------------------------------------------------------
  WS02006242              0.01     89.35      0  01:48       0.000     0.000
  WS02006248              0.01     14.08      0  02:03       0.000     0.000
  WS02006249              0.15     94.26      0  01:49       0.034     0.000
  WS02006252              0.01    245.63      0  00:00       0.000     0.000
  WS02006256              0.38    293.19      0  00:00       0.119     0.000
  YS02001580              0.01    104.01      0  01:33       0.001     0.000
  YS02001583              0.01    226.19      0  01:33       0.000     0.000
  YS02001586              0.71    567.53      0  01:42       0.697     0.000
  YS02001590              0.01    116.87      0  01:31       0.000     0.000
  YS02001593              0.01     18.73      0  01:31       0.000     0.000
  YS02001600              0.01      3.79      0  01:32       0.000     0.000
  YS02001601              0.94   1531.46      0  01:40       2.142     0.000
  YS02001602              0.80     62.03      0  02:05       0.164     0.000
  YS02001605              0.01      2.96      0  01:32       0.000     0.000
  YS02001607              0.01     62.88      0  01:32       0.000     0.000
  YS02001610              0.71    890.49      0  01:42       1.174     0.000
  YS02001616              0.01     54.06      0  01:32       0.000     0.000
  YS02001619              0.01    146.02      0  01:32       0.000     0.000
  YS02001622              0.01    324.57      0  01:33       0.001     0.000
  YS02001625              0.66   1441.08      0  01:43       1.700     0.000
  YS02001629              0.18    415.54      0  01:38       0.132     0.000
  YS02001633              0.01      3.52      0  01:34       0.000     0.000
  YS02001644              0.26   1339.57      0  01:39       0.710     0.000
  YS02001649              0.01    215.62      0  01:36       0.004     0.000
  YS02001652              0.01     89.75      0  01:35       0.000     0.000
  YS02001655              0.01    386.52      0  01:35       0.001     0.000
  YS02001658              0.01    424.70      0  01:35       0.001     0.000
  YS02001661              0.01    349.01      0  01:36       0.000     0.000
  YS02001664              0.01    186.08      0  01:36       0.000     0.000
  YS02001745              0.01    400.20      0  01:36       0.000     0.000
  YS02001748              0.01    551.46      0  01:36       0.002     0.000
  YS02001751              0.01    286.80      0  01:36       0.001     0.000
  YS02001754              0.01     81.79      0  01:36       0.000     0.000
  YS02001757              0.01     22.29      0  01:36       0.000     0.000
  YS02001759              0.01      0.29      0  01:37       0.000     0.000
  YS02001762              0.01      5.78      0  01:36       0.000     0.000
  YS02001765              0.01      4.52      0  01:36       0.000     0.000
  YS02001767              0.01    173.44      0  01:35       0.000     0.000
  YS02001770              0.02    290.96      0  01:35       0.004     0.000
  YS02001779              0.24    775.45      0  01:39       0.377     0.000
  YS02001882              0.01     25.85      0  01:33       0.000     0.000
  YS02001884              0.01     30.88      0  01:33       0.000     0.000
  YS02001887              0.01      0.39      0  01:37       0.000     0.000
  YS02001890              0.24    514.68      0  01:38       0.225     0.000
  YS02001895              0.01     90.78      0  01:33       0.000     0.000
  YS02001898              0.01    229.67      0  01:33       0.000     0.000
  YS02001901              0.01     13.55      0  01:33       0.000     0.000
  YS02001907              0.51   2438.73      0  01:39       2.159     0.000
  YS02001915              0.01    214.09      0  01:33       0.000     0.000
  YS02001918              0.01    256.78      0  01:35       0.004     0.000
  YS02001920              0.01     25.69      0  01:35       0.000     0.000
  YS02001923              0.01    396.81      0  01:35       0.003     0.000
  YS02001926              0.01    912.29      0  01:35       0.004     0.000
  YS02001929              0.01    739.13      0  01:35       0.002     0.000
  YS02163601              0.01      7.41      0  01:34       0.000     0.000
  
  
  **********************
  Storage Volume Summary
  **********************
  
  ------------------------------------------------------------------------------------------------
                         Average    Avg   Evap  Exfil     Maximum    Max    Time of Max    Maximum
                          Volume   Pcnt   Pcnt   Pcnt      Volume   Pcnt     Occurrence    Outflow
  Storage Unit           1000 m³   Full   Loss   Loss     1000 m³   Full    days hr:min        LPS
  ------------------------------------------------------------------------------------------------
  CC-storage               2.285   35.7    0.0    0.0       4.453   69.5       0  02:24    1783.53
  JK-storage               0.093   31.9    0.0    0.0       0.201   69.0       0  02:08    2300.00
  
  
  ***********************
  Outfall Loading Summary
  ***********************
  
  -----------------------------------------------------------
                         Flow       Avg       Max       Total
                         Freq      Flow      Flow      Volume
  Outfall Node           Pcnt       LPS       LPS    10^6 ltr
  -----------------------------------------------------------
  CC-1                  60.63    683.00    683.00       5.662
  CC-2                  60.44    683.00    683.00       5.635
  JK-1                   0.41   1000.00   1000.00       0.063
  JK-2                  31.20   1000.00   1000.00       4.600
  WSC                   99.94    203.92    510.79       3.795
  -----------------------------------------------------------
  System                50.52   3569.92   3366.23      19.756
  
  
  ********************
  Link Flow Summary
  ********************
  
  -----------------------------------------------------------------------------
                                 Maximum  Time of Max   Maximum    Max/    Max/
                                  |Flow|   Occurrence   |Veloc|    Full    Full
  Link                 Type          LPS  days hr:min     m/sec    Flow   Depth
  -----------------------------------------------------------------------------
  1                    CONDUIT    510.79     0  02:11      2.76    0.18    0.29
  WS02003060WS02003069 CONDUIT    515.79     0  02:09      1.62    0.20    0.32
  WS02003066WSF200     CONDUIT    495.64     0  02:08      2.80    0.08    0.21
  WS02003067WS02003066 CONDUIT    495.66     0  02:08      1.15    0.16    0.41
  WS02003069WS02003072 CONDUIT    514.66     0  02:10      1.34    0.25    0.37
  WS02003072WS02003073 CONDUIT    512.18     0  02:10      1.40    1.11    0.36
  WS02004401WS02004402 CONDUIT    529.89     0  01:55      1.23    0.64    0.86
  WS02004402WS02004403 CONDUIT    522.02     0  02:00      1.24    0.75    0.89
  WS02004403WS02004404 CONDUIT    524.97     0  02:05      1.17    0.38    0.94
  WS02004404WS02004405 CONDUIT    571.02     0  02:06      1.43    5.59    0.96
  WS02004405WS02004406 CONDUIT    516.15     0  02:06      1.39    1.02    0.94
  WS02004406WS02004407 CONDUIT    510.84     0  02:06      1.01    0.23    0.61
  WS02004407WS02004409 CONDUIT    509.47     0  02:06      1.51    0.18    0.46
  WS02004409WS02004410 CONDUIT    506.52     0  02:07      0.97    0.66    0.64
  WS02004410WS02004411 CONDUIT    504.84     0  02:07      0.93    0.69    0.66
  WS02004411WS02004412 CONDUIT    502.15     0  02:07      0.91    0.71    0.67
  WS02004412WS02004413 CONDUIT    497.64     0  02:07      0.88    0.33    0.75
  WS02004413WS02003067 CONDUIT    495.49     0  02:08      1.06    0.21    0.57
  WS02006109WS02006110 CONDUIT    562.79     0  01:58      1.12    1.08    1.00
  WS02006110WS02006113 CONDUIT    567.92     0  01:58      1.37    0.52    0.79
  WS02006111WS02006112 CONDUIT    542.79     0  02:05      1.96    0.26    0.67
  WS02006112WS02006115 CONDUIT    550.24     0  02:10      0.77    0.32    0.86
  WS02006113WS02006111 CONDUIT    560.17     0  01:54      2.46    0.67    0.46
  WS02006115WS02006116 CONDUIT    536.77     0  01:55      1.19    0.69    0.75
  WS02006116WS02004401 CONDUIT    533.61     0  01:55      1.22    0.74    0.83
  WS02006228WS02006109 CONDUIT    560.45     0  01:58      1.11    2.45    1.00
  WS02006229WS02006228 CONDUIT    558.43     0  01:58      1.14    1.85    1.00
  WS02006230WS02006229 CONDUIT    558.99     0  01:58      1.45   12.44    1.00
  WS02006231WS02006230 CONDUIT    574.39     0  01:58      1.57    8.71    1.00
  WS02006232WS02006231 CONDUIT    577.57     0  01:58      1.51    1.21    1.00
  WS02006234WS02006232 CONDUIT    576.66     0  01:58      1.50    1.17    1.00
  WS02006235WS02006234 CONDUIT    571.57     0  01:58      1.49    6.03    1.00
  WS02006238WS02006235 CONDUIT    425.16     0  02:10      1.45    0.95    1.00
  WS02006239WS02006238 CONDUIT    424.76     0  02:10      1.10    1.36    1.00
  WS02006240WS02006239 CONDUIT    423.13     0  02:10      1.24    1.33    1.00
  WS02006242WS02006240 CONDUIT    420.08     0  02:10      1.13    1.67    1.00
  WS02006243WS02006242 CONDUIT    420.13     0  02:10      1.40    0.90    1.00
  WS02006245WS02006243 CONDUIT    420.25     0  02:10      1.45    1.24    1.00
  WS02006247WS02006245 CONDUIT    420.65     0  02:10      1.43    3.34    1.00
  WS02006248WS02006247 CONDUIT    420.66     0  02:10      1.44    0.92    1.00
  WS02006249WS02006248 CONDUIT    421.26     0  02:10      1.36    2.31    1.00
  WS02006251WS02006249 CONDUIT    459.02     0  00:00      1.99    1.32    1.00
  WS02006252WS02006251 CONDUIT    405.95     0  01:49     25.30    1.49    1.00
  WS02006256WS02006235 CONDUIT    288.91     0  00:00      4.23    3.06    1.00
  WSF200WS02003060     CONDUIT    497.81     0  02:08      2.02    0.11    0.27
  YS02001580YS02001583 CONDUIT    156.29     0  01:32      0.86    0.61    1.00
  YS02001583YS02001586 CONDUIT    192.64     0  01:33      0.87    0.29    1.00
  YS02001586YS02001590 CONDUIT    318.38     0  02:08      1.27    0.56    1.00
  YS02001590YS02001593 CONDUIT    318.48     0  02:08      1.13    2.00    1.00
  YS02001593YS02001596 CONDUIT    317.98     0  02:08      1.74    0.50    1.00
  YS02001596YS02001600 CONDUIT    318.45     0  02:08      1.23    0.62    1.00
  YS02001600YS02001601 CONDUIT    318.39     0  02:08      1.13    0.55    1.00
  YS02001601YS02001602 CONDUIT    574.42     0  01:32      2.03    2.07    1.00
  YS02001602YS02001605 CONDUIT    574.39     0  01:32      2.03   12.16    1.00
  YS02001605YS02001607 CONDUIT    574.29     0  01:32      2.03    3.15    1.00
  YS02001607YS02001610 CONDUIT    554.70     0  01:32      0.71    0.53    1.00
  YS02001610YS02001613 CONDUIT    562.20     0  01:32      0.72    0.65    1.00
  YS02001613YS02001616 CONDUIT    579.66     0  01:32      0.74    0.50    1.00
  YS02001616YS02001619 CONDUIT    554.32     0  01:42      0.71    0.96    1.00
  YS02001619YS02001622 CONDUIT   1020.46     0  01:41      1.30    1.50    1.00
  YS02001622YS02001625 CONDUIT   1020.68     0  01:41      1.30    0.54    1.00
  YS02001625YS02001629 CONDUIT    963.07     0  01:33      1.23    0.46    1.00
  YS02001629YS02163301 CONDUIT    912.15     0  01:34      1.16    1.12    1.00
  YS02001633YS02163601 CONDUIT   1443.91     0  01:34      1.84    1.52    1.00
  YS02001641YS02001644 CONDUIT   1443.66     0  01:34      1.84    4.67    1.00
  YS02001644YS02001647 CONDUIT   1954.07     0  01:34      2.49    1.15    1.00
  YS02001647YS02001649 CONDUIT   1954.16     0  01:34      2.49    1.03    1.00
  YS02001649YS02001757 CONDUIT   2242.90     0  01:35      2.86    1.36    1.00
  YS02001652YS02001649 CONDUIT   1084.03     0  01:37      1.38    0.54    1.00
  YS02001655YS02001652 CONDUIT   1083.68     0  01:37      1.54    0.53    1.00
  YS02001658YS02001655 CONDUIT   1083.01     0  01:37      2.04    0.46    1.00
  YS02001661YS02001658 CONDUIT   1082.94     0  01:37      2.45    0.43    1.00
  YS02001664YS02001661 CONDUIT   1084.81     0  01:37      2.55    0.34    1.00
  YS02001745YS02001748 CONDUIT    703.80     0  01:36      2.42    0.27    1.00
  YS02001748YS02001751 CONDUIT    691.35     0  01:37      1.89    0.35    1.00
  YS02001751YS02001754 CONDUIT    691.45     0  01:37      1.60    0.33    1.00
  YS02001754YS02001757 CONDUIT    691.74     0  01:37      0.88    0.28    1.00
  YS02001757CaochengTiaoxuchi CONDUIT   3644.35     0  01:37      5.19    1.58    1.00
  YS02001759YS02001757 CONDUIT   1589.02     0  01:36      2.02    1.13    1.00
  YS02001762YS02001759 CONDUIT    832.62     0  01:36      1.06    0.96    1.00
  YS02001765YS02001762 CONDUIT    833.13     0  01:36      1.06    0.78    1.00
  YS02001767YS02001765 CONDUIT    834.19     0  01:36      1.06    1.05    1.00
  YS02001770YS02001767 CONDUIT    834.36     0  01:36      1.06    3.30    1.00
  YS02001774YS02001770 CONDUIT    775.42     0  01:39      0.99    0.50    1.00
  YS02001779YS02001774 CONDUIT    775.46     0  01:39      0.99    0.39    1.00
  YS02001783YS02001784 CONDUIT   1173.00     0  01:37      2.33    1.62    1.00
  YS02001784YS02001785 CONDUIT   1174.60     0  01:37      2.34    2.73    1.00
  YS02001786YS02001788 CONDUIT   1174.22     0  01:37      2.50    2.26    0.89
  YS02001788YS02001790 CONDUIT   1179.49     0  01:35      2.72    0.87    0.84
  YS02001790YS02001791 CONDUIT   1286.10     0  01:50      3.42    1.40    0.70
  YS02001791YS02001793 CONDUIT   1244.20     0  01:50      6.43    0.53    0.43
  YS02001793JiankangQianchi CONDUIT   1219.43     0  01:35      2.37    0.10    0.64
  YS02001882YS02001884 CONDUIT    113.44     0  01:33      0.18    0.13    1.00
  YS02001884YS02001887 CONDUIT    148.12     0  01:33      0.19    0.20    1.00
  YS02001887YS02001890 CONDUIT   1033.01     0  01:38      1.32    1.77    1.00
  YS02001890YS02001895 CONDUIT    566.28     0  01:34      0.72    0.26    1.00
  YS02001895YS02001898 CONDUIT    565.15     0  01:34      0.72    0.98    1.00
  YS02001898YS02001901 CONDUIT    562.87     0  01:34      0.72    0.36    1.00
  YS02001901YS02001904 CONDUIT    561.32     0  01:34      0.71    0.87    1.00
  YS02001904YS02001907 CONDUIT    562.13     0  01:34      0.72    0.20    1.00
  YS02001907YS02006553 CONDUIT    791.71     0  02:06      0.88    0.93    1.00
  YS02001910YS02001907 CONDUIT   1743.21     0  01:40      2.22    0.98    1.00
  YS02001915YS02001910 CONDUIT   1743.38     0  01:40      2.22    0.87    1.00
  YS02001918YS02001915 CONDUIT    677.09     0  01:34      0.86    0.37    1.00
  YS02001920YS02001918 CONDUIT    684.78     0  01:34      0.87    0.66    1.00
  YS02001923YS02001920 CONDUIT    698.25     0  01:34      0.95    0.31    1.00
  YS02001926YS02001923 CONDUIT    909.24     0  01:34      1.35    1.30    1.00
  YS02001929YS02001926 CONDUIT    617.98     0  01:35      1.22    0.29    1.00
  YS02006553YS02006556 CONDUIT    792.48     0  02:06      1.01    0.68    1.00
  YS02006556YS02006558 CONDUIT    794.21     0  02:06      1.01    0.63    1.00
  YS02006558YS02006561 CONDUIT   1181.84     0  01:34      4.18    2.61    1.00
  YS02006561YS02001783 CONDUIT   1172.91     0  01:37      2.33    0.61    1.00
  YS02163301YS02001633 CONDUIT    911.66     0  01:34      1.16    0.86    1.00
  YS02163601YS02164001 CONDUIT   1444.02     0  01:34      1.84    1.28    1.00
  YS02164001YS02001641 CONDUIT   1443.56     0  01:34      1.84    1.97    1.00
  CC-R1                PUMP       683.00     0  00:00              1.00
  CC-R2                PUMP       683.00     0  00:00              1.00
  CC-S1                PUMP       200.00     0  00:00              1.00
  CC-S2                PUMP       200.00     0  00:00              1.00
  JK-R1                PUMP      1000.00     0  00:00              1.00
  JK-R2                PUMP      1000.00     0  00:00              1.00
  JK-S                 PUMP       300.00     0  00:00              1.00
  
  
  ***************************
  Flow Classification Summary
  ***************************
  
  -------------------------------------------------------------------------------------
                      Adjusted    ---------- Fraction of Time in Flow Class ---------- 
                       /Actual         Up    Down  Sub   Sup   Up    Down  Norm  Inlet 
  Conduit               Length    Dry  Dry   Dry   Crit  Crit  Crit  Crit  Ltd   Ctrl  
  -------------------------------------------------------------------------------------
  1                       1.00   0.00  0.00  0.00  0.00  1.00  0.00  0.00  0.52  0.00
  WS02003060WS02003069    1.00   0.00  0.00  0.00  0.97  0.03  0.00  0.00  0.77  0.00
  WS02003066WSF200        1.00   0.06  0.00  0.00  0.00  0.94  0.00  0.00  0.91  0.00
  WS02003067WS02003066    1.00   0.05  0.01  0.00  0.94  0.00  0.00  0.00  0.00  0.00
  WS02003069WS02003072    1.00   0.00  0.00  0.00  0.99  0.01  0.00  0.00  0.79  0.00
  WS02003072WS02003073    1.00   0.00  0.00  0.00  0.00  0.00  0.00  1.00  0.00  0.00
  WS02004401WS02004402    1.00   0.02  0.00  0.00  0.98  0.00  0.00  0.00  0.00  0.00
  WS02004402WS02004403    1.00   0.02  0.00  0.00  0.98  0.00  0.00  0.00  0.00  0.00
  WS02004403WS02004404    1.00   0.00  0.03  0.00  0.97  0.00  0.00  0.00  0.00  0.00
  WS02004404WS02004405    1.00   0.00  0.00  0.00  1.00  0.00  0.00  0.00  0.01  0.00
  WS02004405WS02004406    1.00   0.00  0.00  0.00  1.00  0.00  0.00  0.00  0.00  0.00
  WS02004406WS02004407    1.00   0.00  0.03  0.00  0.96  0.00  0.00  0.00  0.00  0.00
  WS02004407WS02004409    1.00   0.04  0.00  0.00  0.95  0.01  0.00  0.00  0.96  0.00
  WS02004409WS02004410    1.00   0.04  0.00  0.00  0.96  0.00  0.00  0.00  0.00  0.00
  WS02004410WS02004411    1.00   0.04  0.00  0.00  0.96  0.00  0.00  0.00  0.00  0.00
  WS02004411WS02004412    1.00   0.04  0.00  0.00  0.96  0.00  0.00  0.00  0.00  0.00
  WS02004412WS02004413    1.00   0.04  0.00  0.00  0.96  0.00  0.00  0.00  0.00  0.00
  WS02004413WS02003067    1.00   0.04  0.01  0.00  0.00  0.00  0.95  0.00  0.00  0.00
  WS02006109WS02006110    1.00   0.00  0.01  0.00  0.98  0.00  0.01  0.00  0.00  0.00
  WS02006110WS02006113    1.00   0.01  0.01  0.00  0.98  0.00  0.00  0.00  0.00  0.00
  WS02006111WS02006112    1.00   0.02  0.00  0.00  0.98  0.00  0.00  0.00  0.98  0.00
  WS02006112WS02006115    1.00   0.02  0.00  0.00  0.97  0.00  0.00  0.00  0.00  0.00
  WS02006113WS02006111    1.00   0.02  0.00  0.00  0.00  0.98  0.00  0.00  0.10  0.00
  WS02006115WS02006116    1.00   0.02  0.00  0.00  0.97  0.00  0.00  0.01  0.00  0.00
  WS02006116WS02004401    1.00   0.02  0.00  0.00  0.98  0.00  0.00  0.00  0.00  0.00
  WS02006228WS02006109    1.00   0.00  0.00  0.00  1.00  0.00  0.00  0.00  0.00  0.00
  WS02006229WS02006228    1.00   0.00  0.00  0.00  0.99  0.00  0.00  0.01  0.00  0.00
  WS02006230WS02006229    1.00   0.00  0.00  0.00  0.99  0.00  0.00  0.01  0.01  0.00
  WS02006231WS02006230    1.00   0.00  0.00  0.00  0.20  0.00  0.80  0.00  0.00  0.00
  WS02006232WS02006231    1.00   0.00  0.00  0.00  0.99  0.00  0.00  0.00  0.00  0.00
  WS02006234WS02006232    1.00   0.00  0.00  0.00  1.00  0.00  0.00  0.00  0.27  0.00
  WS02006235WS02006234    1.00   0.00  0.00  0.00  0.57  0.00  0.43  0.00  0.00  0.00
  WS02006238WS02006235    1.00   0.00  0.00  0.00  1.00  0.00  0.00  0.00  0.00  0.00
  WS02006239WS02006238    1.00   0.00  0.00  0.00  1.00  0.00  0.00  0.00  0.38  0.00
  WS02006240WS02006239    1.00   0.00  0.00  0.00  0.39  0.00  0.00  0.61  0.01  0.00
  WS02006242WS02006240    1.00   0.00  0.00  0.00  0.99  0.00  0.01  0.00  0.00  0.00
  WS02006243WS02006242    1.00   0.00  0.00  0.00  0.99  0.00  0.00  0.00  0.68  0.00
  WS02006245WS02006243    1.00   0.00  0.00  0.00  0.74  0.00  0.00  0.25  0.00  0.00
  WS02006247WS02006245    1.00   0.00  0.00  0.00  0.98  0.00  0.00  0.02  0.00  0.00
  WS02006248WS02006247    1.00   0.00  0.00  0.00  0.99  0.00  0.00  0.01  0.62  0.00
  WS02006249WS02006248    1.00   0.00  0.00  0.00  0.35  0.00  0.65  0.00  0.00  0.00
  WS02006251WS02006249    1.00   0.00  0.00  0.00  0.99  0.01  0.00  0.00  0.63  0.00
  WS02006252WS02006251    1.00   0.00  0.62  0.00  0.02  0.00  0.36  0.00  0.00  0.00
  WS02006256WS02006235    1.00   0.00  0.00  0.00  1.00  0.00  0.00  0.00  0.00  0.00
  WSF200WS02003060        1.00   0.00  0.06  0.00  0.57  0.36  0.00  0.00  0.69  0.00
  YS02001580YS02001583    1.00   0.19  0.58  0.00  0.23  0.00  0.00  0.00  0.67  0.00
  YS02001583YS02001586    1.00   0.41  0.30  0.00  0.29  0.00  0.00  0.00  0.67  0.00
  YS02001586YS02001590    1.00   0.13  0.00  0.00  0.44  0.04  0.00  0.40  0.33  0.00
  YS02001590YS02001593    1.00   0.13  0.01  0.00  0.16  0.00  0.71  0.00  0.00  0.00
  YS02001593YS02001596    1.00   0.13  0.00  0.00  0.18  0.01  0.00  0.68  0.02  0.00
  YS02001596YS02001600    1.00   0.13  0.00  0.00  0.23  0.01  0.00  0.63  0.03  0.00
  YS02001600YS02001601    1.00   0.13  0.01  0.00  0.86  0.00  0.00  0.00  0.58  0.00
  YS02001601YS02001602    1.00   0.13  0.01  0.00  0.87  0.00  0.00  0.00  0.00  0.00
  YS02001602YS02001605    1.00   0.13  0.00  0.00  0.87  0.00  0.00  0.00  0.00  0.00
  YS02001605YS02001607    1.00   0.13  0.00  0.00  0.87  0.00  0.00  0.00  0.00  0.00
  YS02001607YS02001610    1.00   0.13  0.01  0.00  0.86  0.00  0.00  0.00  0.01  0.00
  YS02001610YS02001613    1.00   0.13  0.00  0.00  0.87  0.00  0.00  0.00  0.00  0.00
  YS02001613YS02001616    1.00   0.13  0.00  0.00  0.87  0.00  0.00  0.00  0.00  0.00
  YS02001616YS02001619    1.00   0.13  0.00  0.00  0.87  0.00  0.00  0.00  0.00  0.00
  YS02001619YS02001622    1.00   0.13  0.00  0.00  0.87  0.00  0.00  0.00  0.28  0.00
  YS02001622YS02001625    1.00   0.13  0.00  0.00  0.87  0.00  0.00  0.00  0.03  0.00
  YS02001625YS02001629    1.00   0.13  0.04  0.00  0.20  0.00  0.63  0.00  0.00  0.00
  YS02001629YS02163301    1.00   0.14  0.01  0.00  0.85  0.00  0.00  0.00  0.00  0.00
  YS02001633YS02163601    1.00   0.00  0.01  0.00  0.99  0.00  0.00  0.00  0.14  0.00
  YS02001641YS02001644    1.00   0.00  0.01  0.00  0.99  0.00  0.00  0.00  0.00  0.00
  YS02001644YS02001647    1.00   0.00  0.16  0.00  0.84  0.00  0.00  0.00  0.00  0.00
  YS02001647YS02001649    1.00   0.00  0.16  0.00  0.56  0.28  0.00  0.00  0.56  0.00
  YS02001649YS02001757    1.00   0.00  0.00  0.00  0.70  0.30  0.00  0.00  0.46  0.00
  YS02001652YS02001649    1.00   0.00  0.00  0.00  0.97  0.03  0.00  0.00  0.72  0.00
  YS02001655YS02001652    1.00   0.00  0.00  0.00  0.22  0.01  0.00  0.77  0.04  0.00
  YS02001658YS02001655    1.00   0.00  0.14  0.00  0.69  0.17  0.00  0.00  0.66  0.00
  YS02001661YS02001658    1.00   0.14  0.00  0.00  0.53  0.33  0.00  0.00  0.71  0.00
  YS02001664YS02001661    1.00   0.13  0.00  0.00  0.74  0.13  0.00  0.00  0.84  0.00
  YS02001745YS02001748    1.00   0.00  0.00  0.00  0.13  0.01  0.00  0.86  0.07  0.00
  YS02001748YS02001751    1.00   0.00  0.00  0.00  0.85  0.15  0.00  0.00  0.77  0.00
  YS02001751YS02001754    1.00   0.00  0.00  0.00  0.19  0.00  0.00  0.80  0.02  0.00
  YS02001754YS02001757    1.00   0.00  0.00  0.00  1.00  0.00  0.00  0.00  0.80  0.00
  YS02001757CaochengTiaoxuchi    1.00   0.00  0.00  0.00  0.96  0.04  0.00  0.00  0.78  0.00
  YS02001759YS02001757    1.00   0.00  0.00  0.00  0.98  0.02  0.00  0.00  0.60  0.00
  YS02001762YS02001759    1.00   0.00  0.00  0.00  1.00  0.00  0.00  0.00  0.03  0.00
  YS02001765YS02001762    1.00   0.00  0.00  0.00  1.00  0.00  0.00  0.00  0.71  0.00
  YS02001767YS02001765    1.00   0.00  0.00  0.00  1.00  0.00  0.00  0.00  0.00  0.00
  YS02001770YS02001767    1.00   0.00  0.00  0.00  1.00  0.00  0.00  0.00  0.00  0.00
  YS02001774YS02001770    1.00   0.00  0.13  0.00  0.71  0.00  0.16  0.00  0.02  0.00
  YS02001779YS02001774    1.00   0.00  0.00  0.00  1.00  0.00  0.00  0.00  0.76  0.00
  YS02001783YS02001784    1.00   0.00  0.16  0.00  0.84  0.00  0.00  0.00  0.55  0.00
  YS02001784YS02001785    1.00   0.00  0.00  0.00  1.00  0.00  0.00  0.00  0.15  0.00
  YS02001786YS02001788    1.00   0.00  0.00  0.00  0.79  0.21  0.00  0.00  0.00  0.00
  YS02001788YS02001790    1.00   0.00  0.00  0.00  0.20  0.80  0.00  0.00  0.78  0.00
  YS02001790YS02001791    1.00   0.00  0.00  0.00  0.01  0.99  0.00  0.00  0.16  0.00
  YS02001791YS02001793    1.00   0.00  0.00  0.00  0.00  1.00  0.00  0.00  0.01  0.00
  YS02001793JiankangQianchi    1.00   0.00  0.00  0.00  0.99  0.01  0.00  0.00  0.92  0.00
  YS02001882YS02001884    1.00   0.15  0.01  0.00  0.85  0.00  0.00  0.00  0.00  0.00
  YS02001884YS02001887    1.00   0.06  0.05  0.00  0.89  0.00  0.00  0.00  0.00  0.00
  YS02001887YS02001890    1.00   0.00  0.00  0.00  0.97  0.00  0.03  0.00  0.00  0.00
  YS02001890YS02001895    1.00   0.00  0.15  0.00  0.85  0.00  0.00  0.00  0.00  0.00
  YS02001895YS02001898    1.00   0.15  0.00  0.00  0.83  0.00  0.01  0.00  0.00  0.00
  YS02001898YS02001901    1.00   0.16  0.00  0.00  0.84  0.00  0.00  0.00  0.00  0.00
  YS02001901YS02001904    1.00   0.16  0.00  0.00  0.84  0.00  0.00  0.00  0.00  0.00
  YS02001904YS02001907    1.00   0.00  0.15  0.00  0.84  0.00  0.00  0.00  0.00  0.00
  YS02001907YS02006553    1.00   0.00  0.02  0.00  0.98  0.00  0.00  0.00  0.00  0.00
  YS02001910YS02001907    1.00   0.00  0.00  0.00  0.97  0.00  0.00  0.03  0.12  0.00
  YS02001915YS02001910    1.00   0.00  0.00  0.00  0.97  0.03  0.00  0.00  0.13  0.00
  YS02001918YS02001915    1.00   0.00  0.01  0.00  0.98  0.02  0.00  0.00  0.72  0.00
  YS02001920YS02001918    1.00   0.00  0.01  0.00  0.99  0.00  0.00  0.00  0.00  0.00
  YS02001923YS02001920    1.00   0.00  0.00  0.00  1.00  0.00  0.00  0.00  0.90  0.00
  YS02001926YS02001923    1.00   0.00  0.07  0.00  0.08  0.00  0.84  0.00  0.00  0.00
  YS02001929YS02001926    1.00   0.00  0.13  0.00  0.87  0.00  0.00  0.00  0.80  0.00
  YS02006553YS02006556    1.00   0.01  0.00  0.00  0.99  0.00  0.00  0.00  0.03  0.00
  YS02006556YS02006558    1.00   0.00  0.00  0.00  1.00  0.00  0.00  0.00  0.00  0.00
  YS02006558YS02006561    1.00   0.16  0.00  0.00  0.08  0.76  0.00  0.00  0.18  0.00
  YS02006561YS02001783    1.00   0.16  0.00  0.00  0.11  0.72  0.00  0.00  0.66  0.00
  YS02163301YS02001633    1.00   0.00  0.14  0.00  0.86  0.00  0.00  0.00  0.00  0.00
  YS02163601YS02164001    1.00   0.00  0.08  0.00  0.92  0.00  0.00  0.00  0.00  0.00
  YS02164001YS02001641    1.00   0.01  0.07  0.00  0.92  0.00  0.00  0.00  0.05  0.00
  
  
  *************************
  Conduit Surcharge Summary
  *************************
  
  ----------------------------------------------------------------------------
                                                           Hours        Hours 
                         --------- Hours Full --------   Above Full   Capacity
  Conduit                Both Ends  Upstream  Dnstream   Normal Flow   Limited
  ----------------------------------------------------------------------------
  WS02003072WS02003073        0.01      0.01      0.01      0.29         0.01
  WS02004404WS02004405        0.01      0.01      0.01      2.18         0.01
  WS02004405WS02004406        0.01      0.01      0.01      0.02         0.01
  WS02006109WS02006110        0.07      0.07      1.49      0.13         0.01
  WS02006110WS02006113        0.01      0.01      1.48      0.01         0.01
  WS02006111WS02006112        0.01      0.01      1.72      0.01         0.01
  WS02006112WS02006115        0.01      0.01      0.10      0.01         0.01
  WS02006228WS02006109        1.48      1.49      1.48      2.03         1.48
  WS02006229WS02006228        1.48      1.48      1.48      1.73         1.47
  WS02006230WS02006229        1.55      1.64      1.55      2.54         1.55
  WS02006231WS02006230        0.08      0.08      0.17      2.36         0.01
  WS02006232WS02006231        0.15      0.15      1.49      0.19         0.01
  WS02006234WS02006232        1.45      1.46      1.49      0.19         0.17
  WS02006235WS02006234        0.33      0.33      1.46      2.28         0.01
  WS02006238WS02006235        1.46      1.46      1.49      0.01         0.01
  WS02006239WS02006238        1.47      1.48      1.48      1.57         1.38
  WS02006240WS02006239        1.46      1.48      1.47      1.55         1.36
  WS02006242WS02006240        1.48      1.48      1.51      1.67         0.01
  WS02006243WS02006242        1.46      1.46      1.48      0.01         0.02
  WS02006245WS02006243        1.45      1.45      1.46      1.46         1.33
  WS02006247WS02006245        1.45      1.45      1.45      2.17         1.44
  WS02006248WS02006247        1.44      1.44      1.45      0.01         0.02
  WS02006249WS02006248        1.44      1.44      1.44      2.15         0.01
  WS02006251WS02006249        1.44      1.44      1.44      1.60         1.40
  WS02006252WS02006251        1.64      1.64      1.70      1.64         0.01
  WS02006256WS02006235        2.28      2.32      5.40      0.38         0.01
  YS02001580YS02001583        0.87      0.87      0.93      0.01         0.01
  YS02001583YS02001586        0.88      0.88      1.03      0.01         0.01
  YS02001586YS02001590        1.04      1.04      1.12      0.01         0.01
  YS02001590YS02001593        1.12      1.12      1.14      1.20         0.01
  YS02001593YS02001596        1.13      1.13      1.24      0.01         0.01
  YS02001596YS02001600        1.29      1.29      1.42      0.01         0.01
  YS02001600YS02001601        1.51      1.51      1.73      0.01         0.01
  YS02001601YS02001602        1.66      1.66      1.76      1.45         0.01
  YS02001602YS02001605        1.62      1.62      1.66      2.40         0.01
  YS02001605YS02001607        1.58      1.62      1.58      1.70         1.58
  YS02001607YS02001610        1.09      1.09      1.12      0.01         0.01
  YS02001610YS02001613        1.08      1.08      1.12      0.01         0.01
  YS02001613YS02001616        1.03      1.03      1.08      0.01         0.01
  YS02001616YS02001619        1.02      1.02      1.03      0.01         0.04
  YS02001619YS02001622        1.01      1.02      1.01      1.14         0.98
  YS02001622YS02001625        1.01      1.01      1.22      0.01         0.01
  YS02001625YS02001629        0.96      0.96      1.22      0.01         0.01
  YS02001629YS02163301        1.22      1.22      1.23      0.24         0.22
  YS02001633YS02163601        1.25      1.25      1.28      0.51         0.49
  YS02001641YS02001644        1.16      1.19      1.16      1.77         1.15
  YS02001644YS02001647        0.91      0.91      1.16      0.04         0.01
  YS02001647YS02001649        0.91      0.91      1.07      0.01         0.01
  YS02001649YS02001757        1.06      1.07      1.15      0.15         0.19
  YS02001652YS02001649        0.84      0.84      1.07      0.01         0.01
  YS02001655YS02001652        0.55      0.55      0.80      0.01         0.01
  YS02001658YS02001655        0.29      0.29      0.55      0.01         0.01
  YS02001661YS02001658        0.10      0.10      0.29      0.01         0.01
  YS02001664YS02001661        0.01      0.01      0.13      0.01         0.01
  YS02001745YS02001748        0.01      0.01      0.18      0.01         0.01
  YS02001748YS02001751        0.26      0.26      0.37      0.01         0.01
  YS02001751YS02001754        0.37      0.37      0.65      0.01         0.01
  YS02001754YS02001757        0.72      0.72      1.15      0.01         0.01
  YS02001757CaochengTiaoxuchi        0.98      1.15      1.50      0.54         0.35
  YS02001759YS02001757        1.02      1.02      1.15      0.11         0.11
  YS02001762YS02001759        0.99      0.99      1.02      0.01         0.02
  YS02001765YS02001762        0.92      0.92      0.99      0.01         0.01
  YS02001767YS02001765        0.88      0.88      0.92      0.01         0.03
  YS02001770YS02001767        0.87      0.87      0.88      0.74         0.64
  YS02001774YS02001770        0.83      0.83      0.96      0.01         0.01
  YS02001779YS02001774        0.63      0.63      0.96      0.01         0.01
  YS02001783YS02001784        0.70      0.73      0.70      0.89         0.70
  YS02001784YS02001785        0.59      0.70      0.59      1.20         0.59
  YS02001786YS02001788        0.01      0.59      0.01      1.03         0.01
  YS02001790YS02001791        0.01      0.01      0.01      0.69         0.01
  YS02001793JiankangQianchi        0.01      0.01      7.22      0.01         0.01
  YS02001882YS02001884        0.67      0.67      0.68      0.01         0.01
  YS02001884YS02001887        0.70      0.70      0.72      0.01         0.01
  YS02001887YS02001890        0.73      0.73      0.75      0.20         0.01
  YS02001890YS02001895        0.65      0.65      0.77      0.01         0.01
  YS02001895YS02001898        0.65      0.65      0.65      0.01         0.01
  YS02001898YS02001901        0.66      0.66      0.70      0.01         0.01
  YS02001901YS02001904        0.69      0.69      0.70      0.01         0.01
  YS02001904YS02001907        0.69      0.69      0.99      0.01         0.01
  YS02001907YS02006553        1.22      1.22      1.31      0.01         0.01
  YS02001910YS02001907        0.77      0.77      0.95      0.01         0.01
  YS02001915YS02001910        0.67      0.67      0.77      0.01         0.01
  YS02001918YS02001915        0.57      0.57      0.67      0.01         0.01
  YS02001920YS02001918        0.57      0.57      0.58      0.01         0.01
  YS02001923YS02001920        0.52      0.52      0.58      0.01         0.01
  YS02001926YS02001923        0.21      0.21      0.24      0.01         0.01
  YS02001929YS02001926        0.04      0.05      0.24      0.01         0.01
  YS02006553YS02006556        0.86      0.86      0.98      0.01         0.01
  YS02006556YS02006558        0.92      0.92      1.02      0.01         0.01
  YS02006558YS02006561        0.61      0.85      0.61      1.14         0.61
  YS02006561YS02001783        0.53      0.53      0.73      0.01         0.01
  YS02163301YS02001633        1.23      1.23      1.26      0.01         0.01
  YS02163601YS02164001        1.19      1.19      1.28      0.04         0.01
  YS02164001YS02001641        1.19      1.19      1.19      0.96         0.87
  
  
  ***************
  Pumping Summary
  ***************
  
  ---------------------------------------------------------------------------------------------------------
                                                  Min       Avg       Max     Total     Power    % Time Off
                        Percent   Number of      Flow      Flow      Flow    Volume     Usage    Pump Curve
  Pump                 Utilized   Start-Ups       LPS       LPS       LPS  10^6 ltr     Kw-hr    Low   High
  ---------------------------------------------------------------------------------------------------------
  CC-R1                   29.09          40      0.00    683.00    683.00     5.723    103.66    0.0   35.6
  CC-R2                   28.96          39      0.00    683.00    683.00     5.696    103.22    0.0   35.3
  CC-S1                   28.30          40      0.00    200.00    200.00     1.630      9.32    0.0    0.0
  CC-S2                   21.18           4      0.00    200.00    200.00     1.220      6.67    0.0    0.0
  JK-R1                    0.22           2      0.00   1000.00   1000.00     0.062      0.45    0.0    0.0
  JK-R2                   16.19          49      0.00   1000.00   1000.00     4.663     47.55    0.0    0.0
  JK-S                     4.74          13      0.00    300.00    300.00     0.409      5.94    0.0    0.0
  

  Analysis begun on:  Mon Feb 24 09:45:49 2025
  Analysis ended on:  Mon Feb 24 09:45:50 2025
  Total elapsed time: 00:00:01