
  EPA STORM WATER MANAGEMENT MODEL - VERSION 5.2 (Build 5.2.4)
  PYSWMM TOOLKIT API - VERSION v1.0 (2023-11-27)
  ------------------------------------------------------------

  WARNING 04: minimum elevation drop used for Conduit WS02004404WS02004405
  WARNING 03: negative offset ignored for Link YS02001904YS02001907
  
  ****************
  Analysis Options
  ****************
  Flow Units ............... LPS
  Process Models:
    Rainfall/Runoff ........ YES
    RDII ................... NO
    Snowmelt ............... NO
    Groundwater ............ NO
    Flow Routing ........... YES
    Ponding Allowed ........ NO
    Water Quality .......... NO
  Infiltration Method ...... HORTON
  Flow Routing Method ...... DYNWAVE
  Surcharge Method ......... EXTRAN
  Starting Date ............ 08/28/2015 08:00:00
  Ending Date .............. 08/28/2015 16:00:00
  Antecedent Dry Days ...... 8.0
  Report Time Step ......... 00:01:00
  Wet Time Step ............ 00:01:00
  Dry Time Step ............ 00:01:00
  Routing Time Step ........ 30.00 sec
  Variable Time Step ....... YES
  Maximum Trials ........... 8
  Number of Threads ........ 4
  Head Tolerance ........... 0.001500 m
  
  
  **************************        Volume         Depth
  Runoff Quantity Continuity     hectare-m            mm
  **************************     ---------       -------
  Total Precipitation ......         2.281        68.766
  Evaporation Loss .........         0.000         0.000
  Infiltration Loss ........         0.100         3.024
  Surface Runoff ...........         2.148        64.763
  Final Storage ............         0.033         0.995
  Continuity Error (%) .....        -0.022
  
  
  **************************        Volume        Volume
  Flow Routing Continuity        hectare-m      10^6 ltr
  **************************     ---------     ---------
  Dry Weather Inflow .......         0.025         0.251
  Wet Weather Inflow .......         2.149        21.488
  Groundwater Inflow .......         0.000         0.000
  RDII Inflow ..............         0.000         0.000
  External Inflow ..........         0.083         0.834
  External Outflow .........         1.716        17.156
  Flooding Loss ............         0.611         6.106
  Evaporation Loss .........         0.000         0.000
  Exfiltration Loss ........         0.000         0.000
  Initial Stored Volume ....         0.243         2.431
  Final Stored Volume ......         0.181         1.809
  Continuity Error (%) .....        -0.271
  
  
  *************************
  Highest Continuity Errors
  *************************
  Node YS02001884 (5.06%)
  Node YS02001583 (-4.30%)
  Node WS02006256 (-2.80%)
  
  
  ***************************
  Time-Step Critical Elements
  ***************************
  Link WS02006252WS02006251 (47.82%)
  Link WS02004404WS02004405 (20.29%)
  Link WS02006238WS02006235 (6.31%)
  Link YS02001791YS02001793 (5.50%)
  Link WS02006235WS02006234 (4.88%)
  
  
  ********************************
  Highest Flow Instability Indexes
  ********************************
  Link WS02006113WS02006111 (34)
  Link WS02006111WS02006112 (14)
  Link WS02006256WS02006235 (13)
  Link YS02006558YS02006561 (11)
  Link YS02001607YS02001610 (10)
  
  
  *********************************
  Most Frequent Nonconverging Nodes
  *********************************
  Node CC-1 (10.70%)
  Node CC-2 (10.70%)
  Node JK-1 (10.70%)
  Node JK-2 (10.70%)
  Node WSC (10.70%)
  
  
  *************************
  Routing Time Step Summary
  *************************
  Minimum Time Step           :     0.00 sec
  Average Time Step           :     2.43 sec
  Maximum Time Step           :     6.43 sec
  % of Time in Steady State   :     0.00
  Average Iterations per Step :     2.98
  % of Steps Not Converging   :    10.70
  Time Step Frequencies       :
     30.000 - 13.228 sec      :     0.00 %
     13.228 -  5.833 sec      :    17.90 %
      5.833 -  2.572 sec      :    18.83 %
      2.572 -  1.134 sec      :    11.81 %
      1.134 -  0.500 sec      :    51.45 %
  
  
  ***************************
  Subcatchment Runoff Summary
  ***************************
  
  ------------------------------------------------------------------------------------------------------------------------------
                            Total      Total      Total      Total     Imperv       Perv      Total       Total     Peak  Runoff
                           Precip      Runon       Evap      Infil     Runoff     Runoff     Runoff      Runoff   Runoff   Coeff
  Subcatchment                 mm         mm         mm         mm         mm         mm         mm    10^6 ltr      LPS
  ------------------------------------------------------------------------------------------------------------------------------
  sub60                     68.77       0.00       0.00       1.82      59.31       6.44      65.75        0.86   598.69   0.956
  sub61                     68.77       0.00       0.00       2.64      55.95       9.06      65.01        1.19   830.76   0.945
  sub62                     68.77       0.00       0.00       1.21      61.98       4.29      66.27        1.82  1170.62   0.964
  sub63                     68.77       0.00       0.00       4.86      47.86      15.09      62.94        1.43   935.76   0.915
  sub64                     68.77       0.00       0.00       2.46      57.25       7.86      65.11        1.56   950.97   0.947
  sub65                     68.77       0.00       0.00       2.13      58.57       6.82      65.39        1.80  1062.33   0.951
  sub66                     68.77       0.00       0.00       6.01      47.75      13.93      61.68        2.88  1390.37   0.897
  sub67                     68.77       0.00       0.00       1.17      62.02       4.34      66.36        1.23   901.74   0.965
  sub68                     68.77       0.00       0.00       2.18      57.95       7.45      65.40        1.80  1201.63   0.951
  sub69                     68.77       0.00       0.00       1.95      58.34       8.37      66.71        2.47  1413.64   0.970
  sub70                     68.77       0.00       0.00       6.50      45.22      16.89      62.11        1.79   781.26   0.903
  sub71                     68.77       0.00       0.00       1.24      61.94       4.26      66.20        1.73  1026.70   0.963
  sub72                     68.77       0.00       0.00       1.11      62.55       3.71      66.26        0.91   498.38   0.964
  
  
  ******************
  Node Depth Summary
  ******************
  
  ---------------------------------------------------------------------------------
                                 Average  Maximum  Maximum  Time of Max    Reported
                                   Depth    Depth      HGL   Occurrence   Max Depth
  Node                 Type       Meters   Meters   Meters  days hr:min      Meters
  ---------------------------------------------------------------------------------
  WS02003060           JUNCTION     0.18     0.36     5.29     0  02:24        0.35
  WS02003066           JUNCTION     0.16     0.28     5.83     0  02:24        0.28
  WS02003067           JUNCTION     0.43     0.67     5.99     0  02:24        0.67
  WS02003069           JUNCTION     0.20     0.40     4.98     0  02:25        0.39
  WS02003072           JUNCTION     0.26     0.47     4.84     0  02:26        0.47
  WS02003073           JUNCTION     0.14     0.28     4.34     0  02:27        0.28
  WS02004401           JUNCTION     0.49     0.81     6.81     0  02:21        0.81
  WS02004402           JUNCTION     0.53     0.84     6.80     0  02:21        0.84
  WS02004403           JUNCTION     0.55     0.86     6.79     0  02:21        0.86
  WS02004404           JUNCTION     0.63     0.93     6.78     0  02:21        0.93
  WS02004405           JUNCTION     0.62     0.93     6.78     0  02:21        0.93
  WS02004406           JUNCTION     0.64     0.93     6.76     0  02:21        0.93
  WS02004407           JUNCTION     0.13     0.28     6.60     0  02:22        0.28
  WS02004409           JUNCTION     0.30     0.61     6.38     0  02:22        0.60
  WS02004410           JUNCTION     0.32     0.62     6.34     0  02:23        0.62
  WS02004411           JUNCTION     0.35     0.64     6.32     0  02:23        0.63
  WS02004412           JUNCTION     0.37     0.65     6.29     0  02:23        0.65
  WS02004413           JUNCTION     0.53     0.81     6.28     0  02:24        0.81
  WS02006109           JUNCTION     0.55     1.10     7.72     0  02:18        0.97
  WS02006110           JUNCTION     0.56     1.11     7.70     0  02:18        0.92
  WS02006111           JUNCTION     0.14     0.29     6.99     0  02:19        0.29
  WS02006112           JUNCTION     0.64     1.00     6.88     0  02:20        1.00
  WS02006113           JUNCTION     0.21     0.46     7.35     0  02:19        0.45
  WS02006115           JUNCTION     0.38     0.70     6.84     0  02:20        0.70
  WS02006116           JUNCTION     0.46     0.79     6.83     0  02:21        0.78
  WS02006228           JUNCTION     0.54     1.11     7.76     0  02:18        1.00
  WS02006229           JUNCTION     0.50     1.14     7.83     0  02:17        1.01
  WS02006230           JUNCTION     0.48     1.29     8.04     0  02:17        1.17
  WS02006231           JUNCTION     0.32     1.02     8.14     0  02:17        0.88
  WS02006232           JUNCTION     0.44     1.18     8.22     0  02:17        1.09
  WS02006234           JUNCTION     0.34     1.20     8.35     0  02:18        1.16
  WS02006235           JUNCTION     0.38     1.32     8.48     0  02:18        1.32
  WS02006238           JUNCTION     0.41     1.36     8.51     0  02:18        1.36
  WS02006239           JUNCTION     0.37     1.38     8.59     0  02:18        1.38
  WS02006240           JUNCTION     0.35     1.36     8.65     0  02:18        1.36
  WS02006242           JUNCTION     0.42     1.43     8.70     0  02:18        1.43
  WS02006243           JUNCTION     0.33     1.30     8.72     0  02:18        1.30
  WS02006245           JUNCTION     0.34     1.24     8.73     0  02:18        1.24
  WS02006247           JUNCTION     0.36     1.22     8.72     0  02:18        1.22
  WS02006248           JUNCTION     0.32     1.10     8.69     0  02:17        1.10
  WS02006249           JUNCTION     0.36     1.09     8.69     0  02:14        1.09
  WS02006251           JUNCTION     0.35     1.34     9.01     0  02:14        1.14
  WS02006252           JUNCTION     0.28     1.50     9.74     0  00:00        0.69
  WS02006256           JUNCTION     0.65     2.35     9.28     0  00:00        2.35
  WSF200               JUNCTION     0.12     0.27     5.50     0  02:24        0.27
  YS02001580           JUNCTION     0.15     1.05     9.59     0  01:53        0.77
  YS02001583           JUNCTION     0.18     1.14     9.64     0  01:53        0.82
  YS02001586           JUNCTION     0.30     1.13     9.30     0  01:53        1.13
  YS02001590           JUNCTION     0.42     1.39     9.25     0  01:53        1.37
  YS02001593           JUNCTION     0.34     1.35     9.21     0  02:27        1.29
  YS02001596           JUNCTION     0.47     1.71     9.13     0  02:27        1.65
  YS02001600           JUNCTION     0.56     1.87     9.00     0  01:53        1.87
  YS02001601           JUNCTION     0.77     2.06     8.90     0  01:52        2.06
  YS02001602           JUNCTION     0.67     1.87     8.77     0  01:52        1.87
  YS02001605           JUNCTION     0.62     1.78     8.68     0  01:53        1.77
  YS02001607           JUNCTION     0.58     1.68     8.53     0  01:53        1.66
  YS02001610           JUNCTION     0.62     1.68     8.48     0  01:52        1.68
  YS02001613           JUNCTION     0.58     1.68     8.52     0  01:53        1.66
  YS02001616           JUNCTION     0.51     1.61     8.52     0  01:52        1.60
  YS02001619           JUNCTION     0.49     1.61     8.54     0  01:52        1.61
  YS02001622           JUNCTION     0.47     1.62     8.52     0  01:52        1.57
  YS02001625           JUNCTION     0.73     1.78     8.38     0  01:53        1.78
  YS02001629           JUNCTION     0.62     1.85     8.40     0  01:53        1.85
  YS02001633           JUNCTION     0.70     2.05     8.50     0  01:57        2.00
  YS02001641           JUNCTION     0.66     1.97     8.41     0  01:58        1.94
  YS02001644           JUNCTION     0.65     1.92     8.35     0  01:57        1.92
  YS02001647           JUNCTION     0.42     1.82     8.43     0  01:58        1.74
  YS02001649           JUNCTION     0.47     2.05     8.44     0  01:58        1.94
  YS02001652           JUNCTION     0.33     2.16     8.76     0  01:58        1.79
  YS02001655           JUNCTION     0.26     2.20     9.05     0  01:58        1.60
  YS02001658           JUNCTION     0.19     2.30     9.44     0  01:58        1.36
  YS02001661           JUNCTION     0.20     2.09     9.49     0  01:59        1.16
  YS02001664           JUNCTION     0.09     0.68     8.60     0  01:59        0.64
  YS02001745           JUNCTION     0.10     0.89     8.40     0  01:59        0.80
  YS02001748           JUNCTION     0.17     2.27     9.35     0  01:58        1.22
  YS02001751           JUNCTION     0.21     2.20     9.08     0  01:58        1.40
  YS02001754           JUNCTION     0.28     2.20     8.81     0  01:58        1.64
  YS02001757           JUNCTION     0.46     2.16     8.42     0  01:58        1.95
  YS02001759           JUNCTION     0.40     2.18     8.55     0  01:58        1.97
  YS02001762           JUNCTION     0.39     2.15     8.55     0  01:57        1.99
  YS02001765           JUNCTION     0.37     2.10     8.55     0  01:57        1.99
  YS02001767           JUNCTION     0.37     2.03     8.52     0  01:57        1.97
  YS02001770           JUNCTION     0.39     1.95     8.44     0  01:57        1.95
  YS02001774           JUNCTION     0.45     2.04     8.46     0  01:57        1.99
  YS02001779           JUNCTION     0.27     1.68     8.37     0  01:57        1.68
  YS02001783           JUNCTION     0.35     1.55     7.69     0  01:56        1.23
  YS02001784           JUNCTION     0.36     1.28     7.35     0  01:56        1.12
  YS02001786           JUNCTION     0.30     0.97     7.00     0  01:56        0.87
  YS02001788           JUNCTION     0.21     0.63     6.60     0  02:00        0.62
  YS02001790           JUNCTION     0.25     0.73     6.37     0  02:00        0.72
  YS02001791           JUNCTION     0.16     0.44     5.91     0  02:00        0.43
  YS02001793           JUNCTION     0.08     0.27     5.10     0  02:13        0.26
  YS02001882           JUNCTION     0.44     1.83     8.55     0  01:55        1.65
  YS02001884           JUNCTION     0.53     1.92     8.54     0  01:55        1.75
  YS02001887           JUNCTION     0.60     1.94     8.48     0  01:55        1.88
  YS02001890           JUNCTION     0.63     1.81     8.32     0  01:55        1.81
  YS02001895           JUNCTION     0.41     1.75     8.50     0  01:55        1.75
  YS02001898           JUNCTION     0.41     1.77     8.51     0  01:55        1.77
  YS02001901           JUNCTION     0.52     1.85     8.46     0  01:55        1.85
  YS02001904           JUNCTION     0.50     1.69     8.32     0  01:55        1.69
  YS02001907           JUNCTION     0.81     1.96     8.25     0  01:56        1.96
  YS02001910           JUNCTION     0.62     2.01     8.52     0  01:57        1.90
  YS02001915           JUNCTION     0.45     2.00     8.72     0  01:55        1.82
  YS02001918           JUNCTION     0.27     1.81     8.88     0  01:57        1.51
  YS02001920           JUNCTION     0.35     2.12     9.13     0  01:57        1.59
  YS02001923           JUNCTION     0.21     2.03     9.29     0  01:57        1.35
  YS02001926           JUNCTION     0.24     1.90     9.35     0  01:56        1.19
  YS02001929           JUNCTION     0.15     1.78     9.47     0  01:57        0.96
  YS02006553           JUNCTION     0.81     2.06     8.35     0  01:56        1.99
  YS02006556           JUNCTION     0.78     2.13     8.44     0  01:56        1.97
  YS02006558           JUNCTION     0.83     2.19     8.46     0  01:56        2.01
  YS02006561           JUNCTION     0.22     1.38     8.04     0  01:56        0.90
  YS02163301           JUNCTION     0.65     1.94     8.46     0  01:57        1.91
  YS02163601           JUNCTION     0.73     2.07     8.47     0  01:58        2.01
  YS02164001           JUNCTION     0.65     1.99     8.45     0  01:58        1.93
  CC-1                 OUTFALL      0.00     0.00     0.00     0  00:00        0.00
  CC-2                 OUTFALL      0.00     0.00     0.00     0  00:00        0.00
  JK-1                 OUTFALL      0.00     0.00     0.00     0  00:00        0.00
  JK-2                 OUTFALL      0.00     0.00     0.00     0  00:00        0.00
  WSC                  OUTFALL      0.14     0.27     0.94     0  02:27        0.27
  CC-storage           STORAGE      0.71     1.39     6.89     0  02:34        1.39
  JK-storage           STORAGE      1.62     4.01     4.81     0  02:17        3.99
  
  
  *******************
  Node Inflow Summary
  *******************
  
  -------------------------------------------------------------------------------------------------
                                  Maximum  Maximum                  Lateral       Total        Flow
                                  Lateral    Total  Time of Max      Inflow      Inflow     Balance
                                   Inflow   Inflow   Occurrence      Volume      Volume       Error
  Node                 Type           LPS      LPS  days hr:min    10^6 ltr    10^6 ltr     Percent
  -------------------------------------------------------------------------------------------------
  WS02003060           JUNCTION     16.53   478.36     0  02:24       0.476        3.15       0.065
  WS02003066           JUNCTION      0.00   459.75     0  02:24           0        2.67       0.045
  WS02003067           JUNCTION      0.00   458.95     0  02:24           0        2.68       0.150
  WS02003069           JUNCTION      0.32   478.60     0  02:25     0.00922        3.15       0.111
  WS02003072           JUNCTION      0.00   477.67     0  02:25           0        3.15       0.201
  WS02003073           JUNCTION      1.82   477.47     0  02:26      0.0524         3.2       0.158
  WS02004401           JUNCTION      0.00   520.80     0  02:20           0        2.77       0.361
  WS02004402           JUNCTION      0.00   511.24     0  02:20           0        2.76       0.367
  WS02004403           JUNCTION      0.00   501.71     0  02:20           0        2.75       0.361
  WS02004404           JUNCTION      0.16   497.40     0  02:21     0.00467        2.75       0.303
  WS02004405           JUNCTION      0.04   498.11     0  02:21      0.0011        2.74       0.447
  WS02004406           JUNCTION      0.00   497.50     0  02:21           0        2.73       0.755
  WS02004407           JUNCTION      0.00   494.53     0  02:21           0        2.71       0.035
  WS02004409           JUNCTION      0.00   493.23     0  02:22           0        2.71       0.082
  WS02004410           JUNCTION      0.00   487.91     0  02:22           0         2.7       0.147
  WS02004411           JUNCTION      0.00   480.66     0  02:22           0         2.7       0.192
  WS02004412           JUNCTION      0.00   468.87     0  02:23           0        2.69       0.261
  WS02004413           JUNCTION      0.00   463.97     0  02:23           0        2.69       0.478
  WS02006109           JUNCTION      1.23   551.43     0  02:18      0.0354        2.82       0.339
  WS02006110           JUNCTION      0.00   550.91     0  02:18           0        2.81       0.232
  WS02006111           JUNCTION      0.00   559.91     0  02:19           0         2.8       0.033
  WS02006112           JUNCTION      0.00   541.11     0  02:20           0         2.8       0.657
  WS02006113           JUNCTION      0.00   565.79     0  02:18           0         2.8       0.047
  WS02006115           JUNCTION      0.00   537.07     0  02:20           0        2.78       0.234
  WS02006116           JUNCTION      0.00   529.71     0  02:20           0        2.78       0.170
  WS02006228           JUNCTION      0.00   549.47     0  02:18           0        2.79       0.161
  WS02006229           JUNCTION      0.00   550.17     0  02:18           0        2.79       0.137
  WS02006230           JUNCTION     10.28   582.66     0  02:17       0.296         2.8       0.206
  WS02006231           JUNCTION      0.00   572.13     0  02:17           0         2.5      -0.007
  WS02006232           JUNCTION      0.00   571.42     0  02:17           0        2.51       0.181
  WS02006234           JUNCTION      0.00   567.55     0  02:17           0         2.5      -0.165
  WS02006235           JUNCTION      0.00   560.61     0  02:17           0        2.52       0.224
  WS02006238           JUNCTION      0.00   423.47     0  02:20           0        2.41      -0.179
  WS02006239           JUNCTION      0.00   422.76     0  02:20           0         2.4      -0.203
  WS02006240           JUNCTION      0.00   420.00     0  02:20           0        2.39      -0.035
  WS02006242           JUNCTION      0.00   420.35     0  02:20           0        2.39      -0.032
  WS02006243           JUNCTION      0.00   419.66     0  02:20           0        2.38      -0.100
  WS02006245           JUNCTION      0.00   419.49     0  02:20           0         2.4       0.470
  WS02006247           JUNCTION      0.00   419.13     0  02:20           0         2.4      -0.022
  WS02006248           JUNCTION      0.00   418.68     0  02:20           0        2.39      -0.128
  WS02006249           JUNCTION      0.00   459.02     0  00:00           0        2.42       0.598
  WS02006251           JUNCTION      0.08   406.01     0  02:14     0.00222        2.42       0.039
  WS02006252           JUNCTION      0.00   400.00     0  00:00           0         2.4      -0.706
  WS02006256           JUNCTION      0.00   300.00     0  00:00           0       0.152      -2.723
  WSF200               JUNCTION      0.00   459.57     0  02:24           0        2.67       0.016
  YS02001580           JUNCTION      0.00   136.79     0  01:53           0     0.00431       0.830
  YS02001583           JUNCTION      0.00   167.00     0  01:53           0      0.0155      -4.127
  YS02001586           JUNCTION    781.26   781.26     0  02:04        1.79        1.81       0.059
  YS02001590           JUNCTION      0.00   317.89     0  02:09           0        1.38      -0.036
  YS02001593           JUNCTION      0.00   317.92     0  02:21           0        1.38       0.000
  YS02001596           JUNCTION      0.00   317.92     0  02:17           0        1.38      -0.003
  YS02001600           JUNCTION      0.00   317.92     0  02:14           0        1.38      -0.007
  YS02001601           JUNCTION   1413.64  1731.14     0  02:03        2.47        3.85      -0.001
  YS02001602           JUNCTION      0.00   519.08     0  01:52           0        2.35       0.010
  YS02001605           JUNCTION      0.00   519.25     0  01:52           0        2.24       0.014
  YS02001607           JUNCTION      0.00   519.31     0  01:52           0        2.23       0.086
  YS02001610           JUNCTION      0.00   773.22     0  02:04           0        2.51       0.074
  YS02001613           JUNCTION      0.00   527.60     0  01:52           0        2.03       0.076
  YS02001616           JUNCTION      0.00   526.94     0  01:52           0        2.03       0.021
  YS02001619           JUNCTION   1390.37  1390.37     0  02:04        2.88        4.64      -0.002
  YS02001622           JUNCTION      0.00   968.17     0  02:02           0        4.36      -0.004
  YS02001625           JUNCTION      0.00  1360.85     0  02:05           0        4.55       0.181
  YS02001629           JUNCTION      0.00   931.60     0  01:56           0         3.7       0.019
  YS02001633           JUNCTION   1062.53  1407.10     0  01:56        1.81        5.25       0.064
  YS02001641           JUNCTION      0.00  1406.53     0  01:56           0           5       0.054
  YS02001644           JUNCTION    951.01  1839.27     0  01:56        1.57        6.56       0.046
  YS02001647           JUNCTION      0.00  1839.56     0  01:56           0        6.19       0.003
  YS02001649           JUNCTION      0.00  2132.14     0  01:56           0        7.62       0.002
  YS02001652           JUNCTION      0.00   951.38     0  02:02           0        1.43      -0.082
  YS02001655           JUNCTION      0.15   951.33     0  02:02     0.00443        1.43      -0.002
  YS02001658           JUNCTION      0.00   951.11     0  02:02           0        1.43      -0.037
  YS02001661           JUNCTION      0.00   947.73     0  02:02           0        1.43       0.023
  YS02001664           JUNCTION    935.76   935.76     0  02:02        1.43        1.43      -0.005
  YS02001745           JUNCTION    598.69   598.69     0  02:02       0.864       0.864       0.171
  YS02001748           JUNCTION      0.04   625.28     0  02:01      0.0013       0.865      -0.313
  YS02001751           JUNCTION      0.01   627.46     0  02:01    0.000317       0.871       0.044
  YS02001754           JUNCTION      0.26   627.81     0  02:01     0.00749       0.882      -0.120
  YS02001757           JUNCTION      0.00  3573.14     0  02:01           0        11.3       0.051
  YS02001759           JUNCTION    830.80  1467.64     0  02:01        1.19        2.85      -0.013
  YS02001762           JUNCTION      0.00   823.15     0  01:58           0        1.66       0.001
  YS02001765           JUNCTION      0.00   823.90     0  01:58           0        1.66      -0.003
  YS02001767           JUNCTION      0.54   824.36     0  01:58      0.0154        1.66       0.004
  YS02001770           JUNCTION   1170.77  1170.77     0  02:02        1.82        1.86      -0.004
  YS02001774           JUNCTION      0.00   551.66     0  02:02           0       0.241       0.438
  YS02001779           JUNCTION      0.01   551.95     0  02:02    0.000144       0.198      -0.206
  YS02001783           JUNCTION      0.00  1167.40     0  02:00           0        4.17       0.005
  YS02001784           JUNCTION      1.06  1168.41     0  02:00      0.0305         4.2       0.011
  YS02001786           JUNCTION      0.06  1168.50     0  02:00     0.00162         4.2       0.015
  YS02001788           JUNCTION      0.07  1168.61     0  02:00     0.00204         4.2       0.007
  YS02001790           JUNCTION      0.15  1179.59     0  02:01     0.00446         4.2       0.026
  YS02001791           JUNCTION      0.00  1299.89     0  02:00           0         4.2      -0.024
  YS02001793           JUNCTION      0.00  1249.03     0  02:00           0         4.2       0.007
  YS02001882           JUNCTION      0.00    63.11     0  01:54           0      0.0124       4.500
  YS02001884           JUNCTION      0.00    81.70     0  01:54           0      0.0481       5.328
  YS02001887           JUNCTION    902.19   902.86     0  02:01        1.25        1.28       0.334
  YS02001890           JUNCTION      0.00   903.13     0  02:01           0        1.24       0.400
  YS02001895           JUNCTION      0.00   516.38     0  02:07           0        1.11       0.144
  YS02001898           JUNCTION      0.00   516.38     0  02:07           0        1.11       0.002
  YS02001901           JUNCTION      0.00   516.38     0  02:07           0        1.11       0.286
  YS02001904           JUNCTION      0.00   516.38     0  02:07           0        1.11       0.239
  YS02001907           JUNCTION      0.00  2090.79     0  02:02           0        3.83       0.432
  YS02001910           JUNCTION      0.00  1547.11     0  02:02           0        2.72       0.259
  YS02001915           JUNCTION   1026.72  1547.05     0  02:02        1.73        2.76       0.054
  YS02001918           JUNCTION      0.00   520.48     0  02:02           0        1.06       0.021
  YS02001920           JUNCTION      2.87   520.31     0  02:02      0.0827        1.05       0.088
  YS02001923           JUNCTION      0.04   513.63     0  02:02     0.00109       0.947      -0.063
  YS02001926           JUNCTION      0.05   573.56     0  01:56      0.0015       0.925      -0.020
  YS02001929           JUNCTION    498.38   498.38     0  02:03       0.911       0.913      -0.010
  YS02006553           JUNCTION      0.00   798.38     0  02:19           0         2.4       0.483
  YS02006556           JUNCTION      0.00   798.50     0  02:19           0        2.41       0.318
  YS02006558           JUNCTION   1202.51  1202.51     0  02:02        1.83         4.2       0.078
  YS02006561           JUNCTION      0.00  1178.44     0  01:56           0        4.17       0.001
  YS02163301           JUNCTION      0.00   931.58     0  01:56           0        3.69       0.039
  YS02163601           JUNCTION      0.11  1407.08     0  01:56     0.00317           5       0.098
  YS02164001           JUNCTION      0.00  1407.20     0  01:56           0           5       0.042
  CC-1                 OUTFALL       0.00   683.00     0  00:00           0         4.6       0.000
  CC-2                 OUTFALL       0.00   683.00     0  00:00           0        5.21       0.000
  JK-1                 OUTFALL       0.00  1000.00     0  00:00           0       0.369       0.000
  JK-2                 OUTFALL       0.00  1000.00     0  00:00           0        3.79       0.000
  WSC                  OUTFALL       0.00   473.94     0  02:27           0        3.19       0.000
  CC-storage           STORAGE       0.00  3573.40     0  02:01           0        13.6      -0.230
  JK-storage           STORAGE       0.00  1266.61     0  02:08           0        4.35      -0.359
  
  
  **********************
  Node Surcharge Summary
  **********************
  
  Surcharging occurs when water rises above the top of the highest conduit.
  ---------------------------------------------------------------------
                                               Max. Height   Min. Depth
                                   Hours       Above Crown    Below Rim
  Node                 Type      Surcharged         Meters       Meters
  ---------------------------------------------------------------------
  WS02006109           JUNCTION        0.96          0.284        1.536
  WS02006110           JUNCTION        0.03          0.200        1.650
  WS02006228           JUNCTION        0.95          0.283        1.917
  WS02006229           JUNCTION        0.96          0.336        2.114
  WS02006230           JUNCTION        0.03          0.211        1.359
  WS02006231           JUNCTION        0.05          0.311        1.219
  WS02006232           JUNCTION        0.98          0.484        0.996
  WS02006234           JUNCTION        0.12          0.477        0.763
  WS02006235           JUNCTION        0.95          0.608        0.682
  WS02006238           JUNCTION        0.96          0.645        0.785
  WS02006239           JUNCTION        0.95          0.644        0.646
  WS02006240           JUNCTION        0.95          0.652        0.738
  WS02006242           JUNCTION        0.97          0.698        0.122
  WS02006243           JUNCTION        0.95          0.592        0.178
  WS02006245           JUNCTION        0.94          0.533        0.317
  WS02006247           JUNCTION        0.94          0.508        0.252
  WS02006248           JUNCTION        0.94          0.380        0.000
  WS02006249           JUNCTION        0.94          0.390        0.000
  WS02006251           JUNCTION        0.06          0.314        0.866
  WS02006252           JUNCTION        1.19          1.100        0.000
  WS02006256           JUNCTION        5.63          2.050        0.000
  YS02001580           JUNCTION        0.66          0.450        0.000
  YS02001583           JUNCTION        0.67          0.500        0.000
  YS02001586           JUNCTION        0.77          0.510        0.000
  YS02001590           JUNCTION        0.84          0.739        0.011
  YS02001593           JUNCTION        0.85          0.730        0.110
  YS02001596           JUNCTION        0.96          0.980        0.090
  YS02001600           JUNCTION        1.13          1.190        0.000
  YS02001601           JUNCTION        1.49          1.440        0.000
  YS02001602           JUNCTION        1.39          1.270        0.000
  YS02001605           JUNCTION        1.34          1.180        0.000
  YS02001607           JUNCTION        0.79          0.680        0.000
  YS02001610           JUNCTION        0.82          0.680        0.000
  YS02001613           JUNCTION        0.78          0.682        0.018
  YS02001616           JUNCTION        0.74          0.610        0.000
  YS02001619           JUNCTION        0.73          0.610        0.000
  YS02001622           JUNCTION        0.72          0.620        0.000
  YS02001625           JUNCTION        0.91          0.780        0.000
  YS02001629           JUNCTION        0.65          0.470        0.000
  YS02001633           JUNCTION        0.92          1.026        0.034
  YS02001641           JUNCTION        0.83          0.972        0.128
  YS02001644           JUNCTION        0.78          0.920        0.000
  YS02001647           JUNCTION        0.55          0.819        0.081
  YS02001649           JUNCTION        0.66          1.050        0.000
  YS02001652           JUNCTION        0.46          1.130        0.000
  YS02001655           JUNCTION        0.31          1.200        0.000
  YS02001658           JUNCTION        0.19          1.300        0.000
  YS02001661           JUNCTION        0.05          1.019        0.371
  YS02001748           JUNCTION        0.11          1.190        0.000
  YS02001751           JUNCTION        0.23          1.200        0.000
  YS02001754           JUNCTION        0.33          1.150        0.000
  YS02001757           JUNCTION        0.68          1.162        0.048
  YS02001759           JUNCTION        0.59          1.184        0.026
  YS02001762           JUNCTION        0.55          1.150        0.000
  YS02001765           JUNCTION        0.51          1.100        0.000
  YS02001767           JUNCTION        0.48          1.030        0.000
  YS02001770           JUNCTION        0.46          0.920        0.000
  YS02001774           JUNCTION        0.53          1.035        0.015
  YS02001779           JUNCTION        0.35          0.680        0.000
  YS02001783           JUNCTION        0.57          0.746        0.854
  YS02001784           JUNCTION        0.55          0.484        1.006
  YS02001786           JUNCTION        0.44          0.175        1.255
  YS02001882           JUNCTION        0.52          0.830        0.000
  YS02001884           JUNCTION        0.53          0.859        0.011
  YS02001887           JUNCTION        0.56          0.890        0.060
  YS02001890           JUNCTION        0.58          0.760        0.000
  YS02001895           JUNCTION        0.51          0.750        0.000
  YS02001898           JUNCTION        0.50          0.740        0.000
  YS02001901           JUNCTION        0.55          0.848        0.022
  YS02001904           JUNCTION        0.54          0.693        0.157
  YS02001907           JUNCTION        0.79          0.950        0.000
  YS02001910           JUNCTION        0.60          1.014        0.086
  YS02001915           JUNCTION        0.51          1.000        0.000
  YS02001918           JUNCTION        0.43          0.810        0.000
  YS02001920           JUNCTION        0.44          1.118        0.022
  YS02001923           JUNCTION        0.13          0.820        0.000
  YS02001926           JUNCTION        0.16          0.900        0.000
  YS02001929           JUNCTION        0.01          0.780        0.000
  YS02006553           JUNCTION        0.81          1.062        0.128
  YS02006556           JUNCTION        0.70          1.093        0.257
  YS02006558           JUNCTION        0.69          1.095        0.305
  YS02006561           JUNCTION        0.39          0.584        0.566
  YS02163301           JUNCTION        0.90          0.939        0.091
  YS02163601           JUNCTION        0.95          1.074        0.006
  YS02164001           JUNCTION        0.84          0.988        0.112
  
  
  *********************
  Node Flooding Summary
  *********************
  
  Flooding refers to all water that overflows a node, whether it ponds or not.
  --------------------------------------------------------------------------
                                                             Total   Maximum
                                 Maximum   Time of Max       Flood    Ponded
                        Hours       Rate    Occurrence      Volume     Depth
  Node                 Flooded       LPS   days hr:min    10^6 ltr    Meters
  --------------------------------------------------------------------------
  WS02006248              0.01      8.76      0  02:17       0.000     0.000
  WS02006249              0.06     90.80      0  02:14       0.013     0.000
  WS02006252              0.01    245.63      0  00:00       0.000     0.000
  WS02006256              0.14    293.19      0  00:00       0.044     0.000
  YS02001580              0.01    114.16      0  01:53       0.000     0.000
  YS02001583              0.01     51.98      0  01:53       0.000     0.000
  YS02001586              0.53    463.73      0  02:04       0.419     0.000
  YS02001600              0.01      5.45      0  02:27       0.000     0.000
  YS02001601              0.68   1333.33      0  02:03       1.500     0.000
  YS02001602              0.54     62.15      0  02:10       0.110     0.000
  YS02001605              0.01      1.95      0  01:53       0.000     0.000
  YS02001607              0.01     22.82      0  01:53       0.000     0.000
  YS02001610              0.48    773.22      0  02:04       0.743     0.000
  YS02001616              0.01     57.85      0  01:53       0.000     0.000
  YS02001619              0.01     61.28      0  01:52       0.000     0.000
  YS02001622              0.01     90.80      0  01:52       0.000     0.000
  YS02001625              0.42   1360.84      0  02:05       1.090     0.000
  YS02001629              0.13    269.22      0  02:00       0.067     0.000
  YS02001644              0.18    967.44      0  02:02       0.367     0.000
  YS02001649              0.01     23.70      0  01:59       0.000     0.000
  YS02001652              0.01     54.93      0  01:58       0.000     0.000
  YS02001655              0.01     55.48      0  01:58       0.000     0.000
  YS02001658              0.01    439.03      0  01:58       0.000     0.000
  YS02001748              0.01    335.00      0  01:58       0.000     0.000
  YS02001751              0.01    272.86      0  01:58       0.000     0.000
  YS02001754              0.01     72.70      0  01:58       0.000     0.000
  YS02001762              0.01     39.48      0  01:57       0.000     0.000
  YS02001765              0.01     56.63      0  01:57       0.000     0.000
  YS02001767              0.01     13.10      0  01:57       0.000     0.000
  YS02001770              0.01     71.88      0  01:57       0.000     0.000
  YS02001779              0.16    551.94      0  02:02       0.180     0.000
  YS02001882              0.01     25.91      0  01:55       0.000     0.000
  YS02001890              0.19    388.07      0  02:01       0.128     0.000
  YS02001895              0.01     10.40      0  01:55       0.000     0.000
  YS02001898              0.01     28.93      0  01:55       0.000     0.000
  YS02001907              0.37   2090.78      0  02:02       1.434     0.000
  YS02001915              0.01     72.84      0  01:55       0.000     0.000
  YS02001918              0.01    152.96      0  01:57       0.002     0.000
  YS02001923              0.01    298.66      0  01:57       0.001     0.000
  YS02001926              0.01    465.20      0  01:56       0.001     0.000
  YS02001929              0.01    204.22      0  01:57       0.001     0.000
  
  
  **********************
  Storage Volume Summary
  **********************
  
  ------------------------------------------------------------------------------------------------
                         Average    Avg   Evap  Exfil     Maximum    Max    Time of Max    Maximum
                          Volume   Pcnt   Pcnt   Pcnt      Volume   Pcnt     Occurrence    Outflow
  Storage Unit           1000 m³   Full   Loss   Loss     1000 m³   Full    days hr:min        LPS
  ------------------------------------------------------------------------------------------------
  CC-storage               1.978   30.9    0.0    0.0       3.868   60.3       0  02:34    1783.53
  JK-storage               0.081   27.9    0.0    0.0       0.201   69.1       0  02:17    2300.00
  
  
  ***********************
  Outfall Loading Summary
  ***********************
  
  -----------------------------------------------------------
                         Flow       Avg       Max       Total
                         Freq      Flow      Flow      Volume
  Outfall Node           Pcnt       LPS       LPS    10^6 ltr
  -----------------------------------------------------------
  CC-1                  49.71    683.00    683.00       4.598
  CC-2                  60.85    683.00    683.00       5.210
  JK-1                   2.16   1000.00   1000.00       0.369
  JK-2                  28.85   1000.00   1000.00       3.789
  WSC                   99.95    169.18    473.94       3.190
  -----------------------------------------------------------
  System                48.30   3535.18   3366.23      17.156
  
  
  ********************
  Link Flow Summary
  ********************
  
  -----------------------------------------------------------------------------
                                 Maximum  Time of Max   Maximum    Max/    Max/
                                  |Flow|   Occurrence   |Veloc|    Full    Full
  Link                 Type          LPS  days hr:min     m/sec    Flow   Depth
  -----------------------------------------------------------------------------
  1                    CONDUIT    473.94     0  02:27      2.70    0.17    0.27
  WS02003060WS02003069 CONDUIT    478.28     0  02:25      1.59    0.19    0.31
  WS02003066WSF200     CONDUIT    459.57     0  02:24      2.74    0.08    0.21
  WS02003067WS02003066 CONDUIT    459.75     0  02:24      1.11    0.15    0.40
  WS02003069WS02003072 CONDUIT    477.67     0  02:25      1.31    0.23    0.36
  WS02003072WS02003073 CONDUIT    475.65     0  02:26      1.36    1.03    0.35
  WS02004401WS02004402 CONDUIT    511.24     0  02:20      1.07    0.61    0.83
  WS02004402WS02004403 CONDUIT    501.71     0  02:20      1.09    0.72    0.85
  WS02004403WS02004404 CONDUIT    497.24     0  02:21      1.06    0.36    0.90
  WS02004404WS02004405 CONDUIT    498.07     0  02:21      1.24    4.88    0.93
  WS02004405WS02004406 CONDUIT    497.50     0  02:21      1.20    0.98    0.93
  WS02004406WS02004407 CONDUIT    494.53     0  02:21      0.99    0.22    0.61
  WS02004407WS02004409 CONDUIT    493.23     0  02:22      1.49    0.17    0.44
  WS02004409WS02004410 CONDUIT    487.91     0  02:22      0.97    0.63    0.61
  WS02004410WS02004411 CONDUIT    480.66     0  02:22      0.93    0.66    0.63
  WS02004411WS02004412 CONDUIT    468.87     0  02:23      0.89    0.67    0.64
  WS02004412WS02004413 CONDUIT    463.97     0  02:23      0.85    0.31    0.73
  WS02004413WS02003067 CONDUIT    458.95     0  02:24      1.02    0.20    0.56
  WS02006109WS02006110 CONDUIT    550.91     0  02:18      1.10    1.06    1.00
  WS02006110WS02006113 CONDUIT    565.79     0  02:18      1.37    0.51    0.79
  WS02006111WS02006112 CONDUIT    541.11     0  02:20      1.85    0.26    0.67
  WS02006112WS02006115 CONDUIT    537.07     0  02:20      0.78    0.32    0.84
  WS02006113WS02006111 CONDUIT    559.91     0  02:19      2.46    0.67    0.46
  WS02006115WS02006116 CONDUIT    529.71     0  02:20      1.11    0.68    0.71
  WS02006116WS02004401 CONDUIT    520.80     0  02:20      1.07    0.72    0.80
  WS02006228WS02006109 CONDUIT    550.20     0  02:18      1.09    2.40    1.00
  WS02006229WS02006228 CONDUIT    549.47     0  02:18      1.11    1.82    1.00
  WS02006230WS02006229 CONDUIT    550.17     0  02:18      1.43   12.24    1.00
  WS02006231WS02006230 CONDUIT    572.38     0  02:17      1.56    8.68    1.00
  WS02006232WS02006231 CONDUIT    572.13     0  02:17      1.49    1.20    1.00
  WS02006234WS02006232 CONDUIT    571.42     0  02:17      1.48    1.16    1.00
  WS02006235WS02006234 CONDUIT    567.55     0  02:17      1.47    5.99    1.00
  WS02006238WS02006235 CONDUIT    422.72     0  02:20      1.45    0.94    1.00
  WS02006239WS02006238 CONDUIT    423.47     0  02:20      1.10    1.36    1.00
  WS02006240WS02006239 CONDUIT    422.76     0  02:20      1.24    1.33    1.00
  WS02006242WS02006240 CONDUIT    420.00     0  02:20      1.13    1.67    1.00
  WS02006243WS02006242 CONDUIT    420.35     0  02:20      1.40    0.90    1.00
  WS02006245WS02006243 CONDUIT    419.66     0  02:20      1.45    1.24    1.00
  WS02006247WS02006245 CONDUIT    419.49     0  02:20      1.43    3.33    1.00
  WS02006248WS02006247 CONDUIT    419.13     0  02:20      1.44    0.91    1.00
  WS02006249WS02006248 CONDUIT    418.68     0  02:20      1.36    2.29    1.00
  WS02006251WS02006249 CONDUIT    459.02     0  00:00      1.99    1.32    1.00
  WS02006252WS02006251 CONDUIT    405.93     0  02:14     18.42    1.49    1.00
  WS02006256WS02006235 CONDUIT    288.91     0  00:00      4.23    3.06    1.00
  WSF200WS02003060     CONDUIT    461.84     0  02:24      1.98    0.10    0.26
  YS02001580YS02001583 CONDUIT    136.79     0  01:53      0.67    0.53    1.00
  YS02001583YS02001586 CONDUIT    157.64     0  01:53      0.68    0.24    1.00
  YS02001586YS02001590 CONDUIT    317.89     0  02:09      1.26    0.56    1.00
  YS02001590YS02001593 CONDUIT    317.92     0  02:21      1.12    2.00    1.00
  YS02001593YS02001596 CONDUIT    317.92     0  02:17      1.76    0.50    1.00
  YS02001596YS02001600 CONDUIT    317.92     0  02:14      1.24    0.62    1.00
  YS02001600YS02001601 CONDUIT    318.13     0  02:17      1.13    0.55    1.00
  YS02001601YS02001602 CONDUIT    519.08     0  01:52      1.84    1.87    1.00
  YS02001602YS02001605 CONDUIT    519.25     0  01:52      1.84   10.99    1.00
  YS02001605YS02001607 CONDUIT    519.31     0  01:52      1.84    2.85    1.00
  YS02001607YS02001610 CONDUIT    522.72     0  01:52      0.67    0.50    1.00
  YS02001610YS02001613 CONDUIT    527.60     0  01:52      0.67    0.61    1.00
  YS02001613YS02001616 CONDUIT    526.94     0  01:52      0.68    0.45    1.00
  YS02001616YS02001619 CONDUIT    498.40     0  01:52      0.67    0.87    1.00
  YS02001619YS02001622 CONDUIT    968.17     0  02:02      1.23    1.43    1.00
  YS02001622YS02001625 CONDUIT    968.33     0  02:02      1.23    0.52    1.00
  YS02001625YS02001629 CONDUIT    931.60     0  01:56      1.19    0.44    1.00
  YS02001629YS02163301 CONDUIT    931.58     0  01:56      1.19    1.15    1.00
  YS02001633YS02163601 CONDUIT   1406.97     0  01:56      1.79    1.48    1.00
  YS02001641YS02001644 CONDUIT   1406.42     0  01:56      1.79    4.55    1.00
  YS02001644YS02001647 CONDUIT   1839.56     0  01:56      2.34    1.08    1.00
  YS02001647YS02001649 CONDUIT   1862.36     0  01:56      2.38    0.98    1.00
  YS02001649YS02001757 CONDUIT   2138.49     0  01:56      2.73    1.30    1.00
  YS02001652YS02001649 CONDUIT    951.40     0  02:02      1.21    0.47    1.00
  YS02001655YS02001652 CONDUIT    951.38     0  02:02      1.33    0.46    1.00
  YS02001658YS02001655 CONDUIT    951.18     0  02:02      1.92    0.40    1.00
  YS02001661YS02001658 CONDUIT    951.11     0  02:02      2.38    0.37    1.00
  YS02001664YS02001661 CONDUIT    947.73     0  02:02      2.39    0.30    0.84
  YS02001745YS02001748 CONDUIT    625.23     0  02:01      2.24    0.24    0.94
  YS02001748YS02001751 CONDUIT    627.45     0  02:01      1.75    0.32    1.00
  YS02001751YS02001754 CONDUIT    627.55     0  02:01      1.47    0.30    1.00
  YS02001754YS02001757 CONDUIT    627.85     0  02:01      0.80    0.25    1.00
  YS02001757CaochengTiaoxuchi CONDUIT   3573.40     0  02:01      5.04    1.55    1.00
  YS02001759YS02001757 CONDUIT   1467.56     0  02:01      1.87    1.04    1.00
  YS02001762YS02001759 CONDUIT    822.31     0  01:58      1.05    0.95    1.00
  YS02001765YS02001762 CONDUIT    823.15     0  01:58      1.05    0.77    1.00
  YS02001767YS02001765 CONDUIT    823.90     0  01:58      1.05    1.04    1.00
  YS02001770YS02001767 CONDUIT    823.83     0  01:58      1.05    3.26    1.00
  YS02001774YS02001770 CONDUIT    551.66     0  02:02      0.70    0.35    1.00
  YS02001779YS02001774 CONDUIT    551.94     0  02:02      0.70    0.28    1.00
  YS02001783YS02001784 CONDUIT   1167.35     0  02:00      2.32    1.61    1.00
  YS02001784YS02001785 CONDUIT   1168.44     0  02:00      2.32    2.72    1.00
  YS02001786YS02001788 CONDUIT   1168.53     0  02:00      2.49    2.25    0.89
  YS02001788YS02001790 CONDUIT   1179.44     0  02:01      2.72    0.87    0.85
  YS02001790YS02001791 CONDUIT   1299.89     0  02:00      3.43    1.41    0.71
  YS02001791YS02001793 CONDUIT   1249.03     0  02:00      6.75    0.54    0.43
  YS02001793JiankangQianchi CONDUIT   1266.61     0  02:08      2.53    0.10    0.63
  YS02001882YS02001884 CONDUIT     63.11     0  01:54      0.13    0.07    1.00
  YS02001884YS02001887 CONDUIT     81.70     0  01:54      0.10    0.11    1.00
  YS02001887YS02001890 CONDUIT    903.13     0  02:01      1.15    1.55    1.00
  YS02001890YS02001895 CONDUIT    516.38     0  02:07      0.66    0.24    1.00
  YS02001895YS02001898 CONDUIT    516.38     0  02:07      0.66    0.90    1.00
  YS02001898YS02001901 CONDUIT    516.38     0  02:07      0.66    0.33    1.00
  YS02001901YS02001904 CONDUIT    516.38     0  02:07      0.66    0.80    1.00
  YS02001904YS02001907 CONDUIT    516.38     0  02:07      0.66    0.18    1.00
  YS02001907YS02006553 CONDUIT    798.38     0  02:19      0.89    0.94    1.00
  YS02001910YS02001907 CONDUIT   1547.15     0  02:02      1.97    0.87    1.00
  YS02001915YS02001910 CONDUIT   1547.11     0  02:02      1.97    0.77    1.00
  YS02001918YS02001915 CONDUIT    520.66     0  02:02      0.66    0.29    1.00
  YS02001920YS02001918 CONDUIT    520.48     0  02:02      0.66    0.50    1.00
  YS02001923YS02001920 CONDUIT    517.44     0  02:02      0.70    0.23    1.00
  YS02001926YS02001923 CONDUIT    513.59     0  02:02      0.96    0.73    1.00
  YS02001929YS02001926 CONDUIT    511.97     0  02:02      1.13    0.24    1.00
  YS02006553YS02006556 CONDUIT    798.50     0  02:19      1.02    0.68    1.00
  YS02006556YS02006558 CONDUIT    799.67     0  02:19      1.02    0.63    1.00
  YS02006558YS02006561 CONDUIT   1178.44     0  01:56      4.17    2.60    1.00
  YS02006561YS02001783 CONDUIT   1167.40     0  02:00      2.32    0.60    1.00
  YS02163301YS02001633 CONDUIT    931.36     0  01:56      1.19    0.88    1.00
  YS02163601YS02164001 CONDUIT   1407.20     0  01:56      1.79    1.25    1.00
  YS02164001YS02001641 CONDUIT   1406.53     0  01:56      1.79    1.92    1.00
  CC-R1                PUMP       683.00     0  00:00              1.00
  CC-R2                PUMP       683.00     0  00:00              1.00
  CC-S1                PUMP       200.00     0  00:00              1.00
  CC-S2                PUMP       200.00     0  00:00              1.00
  JK-R1                PUMP      1000.00     0  00:00              1.00
  JK-R2                PUMP      1000.00     0  00:00              1.00
  JK-S                 PUMP       300.00     0  00:00              1.00
  
  
  ***************************
  Flow Classification Summary
  ***************************
  
  -------------------------------------------------------------------------------------
                      Adjusted    ---------- Fraction of Time in Flow Class ---------- 
                       /Actual         Up    Down  Sub   Sup   Up    Down  Norm  Inlet 
  Conduit               Length    Dry  Dry   Dry   Crit  Crit  Crit  Crit  Ltd   Ctrl  
  -------------------------------------------------------------------------------------
  1                       1.00   0.00  0.00  0.00  0.00  1.00  0.00  0.00  0.51  0.00
  WS02003060WS02003069    1.00   0.00  0.00  0.00  0.98  0.02  0.00  0.00  0.80  0.00
  WS02003066WSF200        1.00   0.07  0.00  0.00  0.00  0.93  0.00  0.00  0.92  0.00
  WS02003067WS02003066    1.00   0.06  0.01  0.00  0.94  0.00  0.00  0.00  0.00  0.00
  WS02003069WS02003072    1.00   0.00  0.00  0.00  0.99  0.01  0.00  0.00  0.86  0.00
  WS02003072WS02003073    1.00   0.00  0.00  0.00  0.00  0.00  0.00  1.00  0.00  0.00
  WS02004401WS02004402    1.00   0.02  0.00  0.00  0.98  0.00  0.00  0.00  0.00  0.00
  WS02004402WS02004403    1.00   0.02  0.00  0.00  0.97  0.00  0.00  0.00  0.00  0.00
  WS02004403WS02004404    1.00   0.00  0.03  0.00  0.97  0.00  0.00  0.00  0.00  0.00
  WS02004404WS02004405    1.00   0.00  0.00  0.00  1.00  0.00  0.00  0.00  0.00  0.00
  WS02004405WS02004406    1.00   0.00  0.00  0.00  1.00  0.00  0.00  0.00  0.00  0.00
  WS02004406WS02004407    1.00   0.00  0.04  0.00  0.96  0.00  0.00  0.00  0.00  0.00
  WS02004407WS02004409    1.00   0.04  0.00  0.00  0.95  0.01  0.00  0.00  0.96  0.00
  WS02004409WS02004410    1.00   0.04  0.00  0.00  0.96  0.00  0.00  0.00  0.00  0.00
  WS02004410WS02004411    1.00   0.04  0.00  0.00  0.96  0.00  0.00  0.00  0.00  0.00
  WS02004411WS02004412    1.00   0.04  0.00  0.00  0.96  0.00  0.00  0.00  0.00  0.00
  WS02004412WS02004413    1.00   0.04  0.00  0.00  0.95  0.00  0.00  0.00  0.00  0.00
  WS02004413WS02003067    1.00   0.04  0.01  0.00  0.00  0.00  0.94  0.00  0.00  0.00
  WS02006109WS02006110    1.00   0.00  0.01  0.00  0.98  0.00  0.01  0.00  0.00  0.00
  WS02006110WS02006113    1.00   0.01  0.01  0.00  0.98  0.00  0.00  0.00  0.00  0.00
  WS02006111WS02006112    1.00   0.02  0.00  0.00  0.98  0.00  0.00  0.00  0.98  0.00
  WS02006112WS02006115    1.00   0.02  0.00  0.00  0.97  0.00  0.00  0.00  0.00  0.00
  WS02006113WS02006111    1.00   0.02  0.00  0.00  0.00  0.98  0.00  0.00  0.09  0.00
  WS02006115WS02006116    1.00   0.02  0.00  0.00  0.97  0.00  0.00  0.01  0.00  0.00
  WS02006116WS02004401    1.00   0.02  0.00  0.00  0.98  0.00  0.00  0.00  0.00  0.00
  WS02006228WS02006109    1.00   0.00  0.00  0.00  1.00  0.00  0.00  0.00  0.00  0.00
  WS02006229WS02006228    1.00   0.00  0.00  0.00  0.99  0.00  0.00  0.01  0.00  0.00
  WS02006230WS02006229    1.00   0.00  0.00  0.00  0.99  0.00  0.00  0.01  0.00  0.00
  WS02006231WS02006230    1.00   0.00  0.00  0.00  0.13  0.00  0.87  0.00  0.00  0.00
  WS02006232WS02006231    1.00   0.00  0.00  0.00  0.99  0.00  0.00  0.00  0.00  0.00
  WS02006234WS02006232    1.00   0.00  0.00  0.00  1.00  0.00  0.00  0.00  0.24  0.00
  WS02006235WS02006234    1.00   0.00  0.00  0.00  0.57  0.00  0.43  0.00  0.00  0.00
  WS02006238WS02006235    1.00   0.00  0.00  0.00  1.00  0.00  0.00  0.00  0.00  0.00
  WS02006239WS02006238    1.00   0.00  0.00  0.00  1.00  0.00  0.00  0.00  0.37  0.00
  WS02006240WS02006239    1.00   0.00  0.00  0.00  0.37  0.00  0.00  0.62  0.01  0.00
  WS02006242WS02006240    1.00   0.00  0.00  0.00  0.99  0.00  0.00  0.00  0.00  0.00
  WS02006243WS02006242    1.00   0.00  0.00  0.00  0.99  0.00  0.00  0.00  0.70  0.00
  WS02006245WS02006243    1.00   0.00  0.00  0.00  0.75  0.00  0.00  0.25  0.00  0.00
  WS02006247WS02006245    1.00   0.00  0.00  0.00  0.98  0.00  0.00  0.02  0.00  0.00
  WS02006248WS02006247    1.00   0.00  0.00  0.00  0.99  0.00  0.00  0.01  0.64  0.00
  WS02006249WS02006248    1.00   0.00  0.00  0.00  0.34  0.00  0.66  0.00  0.00  0.00
  WS02006251WS02006249    1.00   0.00  0.00  0.00  0.99  0.01  0.00  0.00  0.64  0.00
  WS02006252WS02006251    1.00   0.00  0.62  0.00  0.01  0.00  0.37  0.00  0.00  0.00
  WS02006256WS02006235    1.00   0.00  0.00  0.00  1.00  0.00  0.00  0.00  0.00  0.00
  WSF200WS02003060        1.00   0.00  0.07  0.00  0.59  0.34  0.00  0.00  0.71  0.00
  YS02001580YS02001583    1.00   0.23  0.57  0.00  0.20  0.00  0.00  0.00  0.66  0.00
  YS02001583YS02001586    1.00   0.42  0.33  0.00  0.25  0.00  0.00  0.00  0.66  0.00
  YS02001586YS02001590    1.00   0.13  0.00  0.00  0.43  0.04  0.00  0.40  0.36  0.00
  YS02001590YS02001593    1.00   0.13  0.01  0.00  0.12  0.00  0.75  0.00  0.00  0.00
  YS02001593YS02001596    1.00   0.13  0.00  0.00  0.14  0.01  0.00  0.71  0.02  0.00
  YS02001596YS02001600    1.00   0.14  0.00  0.00  0.20  0.01  0.00  0.65  0.04  0.00
  YS02001600YS02001601    1.00   0.13  0.01  0.00  0.86  0.00  0.00  0.00  0.60  0.00
  YS02001601YS02001602    1.00   0.13  0.01  0.00  0.87  0.00  0.00  0.00  0.00  0.00
  YS02001602YS02001605    1.00   0.13  0.00  0.00  0.86  0.00  0.00  0.00  0.00  0.00
  YS02001605YS02001607    1.00   0.14  0.00  0.00  0.86  0.00  0.00  0.00  0.00  0.00
  YS02001607YS02001610    1.00   0.13  0.01  0.00  0.86  0.00  0.00  0.00  0.01  0.00
  YS02001610YS02001613    1.00   0.13  0.00  0.00  0.87  0.00  0.00  0.00  0.00  0.00
  YS02001613YS02001616    1.00   0.13  0.00  0.00  0.87  0.00  0.00  0.00  0.00  0.00
  YS02001616YS02001619    1.00   0.13  0.00  0.00  0.87  0.00  0.00  0.00  0.00  0.00
  YS02001619YS02001622    1.00   0.13  0.00  0.00  0.87  0.00  0.00  0.00  0.28  0.00
  YS02001622YS02001625    1.00   0.13  0.00  0.00  0.87  0.00  0.00  0.00  0.04  0.00
  YS02001625YS02001629    1.00   0.13  0.05  0.00  0.17  0.00  0.66  0.00  0.00  0.00
  YS02001629YS02163301    1.00   0.15  0.01  0.00  0.84  0.00  0.00  0.00  0.00  0.00
  YS02001633YS02163601    1.00   0.00  0.01  0.00  0.99  0.00  0.00  0.00  0.15  0.00
  YS02001641YS02001644    1.00   0.00  0.01  0.00  0.99  0.00  0.00  0.00  0.00  0.00
  YS02001644YS02001647    1.00   0.00  0.17  0.00  0.83  0.00  0.00  0.00  0.00  0.00
  YS02001647YS02001649    1.00   0.00  0.17  0.00  0.52  0.31  0.00  0.00  0.56  0.00
  YS02001649YS02001757    1.00   0.00  0.00  0.00  0.65  0.35  0.00  0.00  0.50  0.00
  YS02001652YS02001649    1.00   0.00  0.00  0.00  0.97  0.03  0.00  0.00  0.74  0.00
  YS02001655YS02001652    1.00   0.00  0.00  0.00  0.18  0.01  0.00  0.80  0.07  0.00
  YS02001658YS02001655    1.00   0.00  0.14  0.00  0.64  0.22  0.00  0.00  0.70  0.00
  YS02001661YS02001658    1.00   0.14  0.00  0.00  0.48  0.38  0.00  0.00  0.71  0.00
  YS02001664YS02001661    1.00   0.13  0.00  0.00  0.74  0.14  0.00  0.00  0.85  0.00
  YS02001745YS02001748    1.00   0.00  0.00  0.00  0.07  0.01  0.00  0.92  0.05  0.00
  YS02001748YS02001751    1.00   0.00  0.00  0.00  0.80  0.20  0.00  0.00  0.79  0.00
  YS02001751YS02001754    1.00   0.00  0.00  0.00  0.14  0.01  0.00  0.86  0.03  0.00
  YS02001754YS02001757    1.00   0.00  0.00  0.00  1.00  0.00  0.00  0.00  0.85  0.00
  YS02001757CaochengTiaoxuchi    1.00   0.00  0.00  0.00  0.94  0.06  0.00  0.00  0.83  0.00
  YS02001759YS02001757    1.00   0.00  0.00  0.00  1.00  0.00  0.00  0.00  0.60  0.00
  YS02001762YS02001759    1.00   0.00  0.00  0.00  1.00  0.00  0.00  0.00  0.04  0.00
  YS02001765YS02001762    1.00   0.00  0.00  0.00  1.00  0.00  0.00  0.00  0.73  0.00
  YS02001767YS02001765    1.00   0.00  0.00  0.00  1.00  0.00  0.00  0.00  0.00  0.00
  YS02001770YS02001767    1.00   0.00  0.00  0.00  1.00  0.00  0.00  0.00  0.00  0.00
  YS02001774YS02001770    1.00   0.00  0.13  0.00  0.70  0.00  0.17  0.00  0.03  0.00
  YS02001779YS02001774    1.00   0.00  0.00  0.00  1.00  0.00  0.00  0.00  0.78  0.00
  YS02001783YS02001784    1.00   0.00  0.18  0.00  0.82  0.00  0.00  0.00  0.55  0.00
  YS02001784YS02001785    1.00   0.00  0.00  0.00  1.00  0.00  0.00  0.00  0.16  0.00
  YS02001786YS02001788    1.00   0.00  0.00  0.00  0.79  0.21  0.00  0.00  0.00  0.00
  YS02001788YS02001790    1.00   0.00  0.00  0.00  0.21  0.79  0.00  0.00  0.80  0.00
  YS02001790YS02001791    1.00   0.00  0.00  0.00  0.01  0.99  0.00  0.00  0.16  0.00
  YS02001791YS02001793    1.00   0.00  0.00  0.00  0.00  1.00  0.00  0.00  0.01  0.00
  YS02001793JiankangQianchi    1.00   0.00  0.00  0.00  0.97  0.03  0.00  0.00  0.96  0.00
  YS02001882YS02001884    1.00   0.15  0.01  0.00  0.84  0.00  0.00  0.00  0.00  0.00
  YS02001884YS02001887    1.00   0.06  0.05  0.00  0.89  0.00  0.00  0.00  0.00  0.00
  YS02001887YS02001890    1.00   0.00  0.00  0.00  0.97  0.00  0.03  0.00  0.00  0.00
  YS02001890YS02001895    1.00   0.00  0.16  0.00  0.84  0.00  0.00  0.00  0.00  0.00
  YS02001895YS02001898    1.00   0.16  0.00  0.00  0.82  0.00  0.02  0.00  0.00  0.00
  YS02001898YS02001901    1.00   0.16  0.00  0.00  0.83  0.00  0.00  0.00  0.01  0.00
  YS02001901YS02001904    1.00   0.16  0.00  0.00  0.84  0.00  0.00  0.00  0.00  0.00
  YS02001904YS02001907    1.00   0.00  0.16  0.00  0.84  0.00  0.00  0.00  0.00  0.00
  YS02001907YS02006553    1.00   0.00  0.02  0.00  0.98  0.00  0.00  0.00  0.00  0.00
  YS02001910YS02001907    1.00   0.00  0.00  0.00  0.97  0.00  0.00  0.03  0.12  0.00
  YS02001915YS02001910    1.00   0.00  0.00  0.00  0.97  0.03  0.00  0.00  0.15  0.00
  YS02001918YS02001915    1.00   0.00  0.01  0.00  0.98  0.02  0.00  0.00  0.74  0.00
  YS02001920YS02001918    1.00   0.00  0.01  0.00  0.99  0.00  0.00  0.00  0.00  0.00
  YS02001923YS02001920    1.00   0.00  0.00  0.00  1.00  0.00  0.00  0.00  0.92  0.00
  YS02001926YS02001923    1.00   0.00  0.07  0.00  0.06  0.00  0.86  0.00  0.00  0.00
  YS02001929YS02001926    1.00   0.00  0.13  0.00  0.87  0.00  0.00  0.00  0.82  0.00
  YS02006553YS02006556    1.00   0.01  0.00  0.00  0.99  0.00  0.00  0.00  0.03  0.00
  YS02006556YS02006558    1.00   0.00  0.00  0.00  1.00  0.00  0.00  0.00  0.00  0.00
  YS02006558YS02006561    1.00   0.18  0.00  0.00  0.06  0.76  0.00  0.00  0.19  0.00
  YS02006561YS02001783    1.00   0.18  0.00  0.00  0.09  0.73  0.00  0.00  0.68  0.00
  YS02163301YS02001633    1.00   0.00  0.15  0.00  0.85  0.00  0.00  0.00  0.00  0.00
  YS02163601YS02164001    1.00   0.00  0.08  0.00  0.92  0.00  0.00  0.00  0.00  0.00
  YS02164001YS02001641    1.00   0.01  0.07  0.00  0.92  0.00  0.00  0.00  0.05  0.00
  
  
  *************************
  Conduit Surcharge Summary
  *************************
  
  ----------------------------------------------------------------------------
                                                           Hours        Hours 
                         --------- Hours Full --------   Above Full   Capacity
  Conduit                Both Ends  Upstream  Dnstream   Normal Flow   Limited
  ----------------------------------------------------------------------------
  WS02003072WS02003073        0.01      0.01      0.01      0.04         0.01
  WS02004404WS02004405        0.01      0.01      0.01      2.00         0.01
  WS02006109WS02006110        0.03      0.03      0.98      0.04         0.01
  WS02006110WS02006113        0.01      0.01      0.97      0.01         0.01
  WS02006111WS02006112        0.01      0.01      1.10      0.01         0.01
  WS02006228WS02006109        0.96      0.98      0.96      1.34         0.96
  WS02006229WS02006228        0.95      0.96      0.95      1.09         0.95
  WS02006230WS02006229        1.00      1.06      1.00      2.44         1.00
  WS02006231WS02006230        0.03      0.03      0.06      2.27         0.01
  WS02006232WS02006231        0.05      0.05      0.98      0.07         0.01
  WS02006234WS02006232        0.94      0.94      0.98      0.07         0.07
  WS02006235WS02006234        0.12      0.12      0.95      2.13         0.01
  WS02006238WS02006235        0.95      0.95      0.97      0.01         0.01
  WS02006239WS02006238        0.96      0.97      0.96      1.04         0.93
  WS02006240WS02006239        0.95      0.95      0.95      1.04         0.92
  WS02006242WS02006240        0.95      0.95      0.99      1.15         0.01
  WS02006243WS02006242        0.95      0.95      0.97      0.01         0.01
  WS02006245WS02006243        0.95      0.95      0.95      1.03         0.90
  WS02006247WS02006245        0.94      0.95      0.94      2.06         0.94
  WS02006248WS02006247        0.94      0.94      0.94      0.01         0.01
  WS02006249WS02006248        0.94      0.94      0.94      2.03         0.01
  WS02006251WS02006249        0.93      0.93      0.94      1.10         0.92
  WS02006252WS02006251        1.13      1.13      1.19      1.13         0.01
  WS02006256WS02006235        2.15      2.17      5.62      0.14         0.01
  YS02001580YS02001583        0.66      0.66      0.69      0.01         0.01
  YS02001583YS02001586        0.67      0.67      0.77      0.01         0.01
  YS02001586YS02001590        0.78      0.78      0.84      0.01         0.01
  YS02001590YS02001593        0.85      0.85      0.87      0.91         0.01
  YS02001593YS02001596        0.86      0.86      0.96      0.01         0.01
  YS02001596YS02001600        1.01      1.01      1.13      0.01         0.01
  YS02001600YS02001601        1.21      1.21      1.49      0.01         0.01
  YS02001601YS02001602        1.39      1.39      1.53      1.16         0.01
  YS02001602YS02001605        1.34      1.34      1.39      2.30         0.01
  YS02001605YS02001607        1.30      1.34      1.30      1.46         1.30
  YS02001607YS02001610        0.79      0.79      0.82      0.01         0.01
  YS02001610YS02001613        0.78      0.78      0.82      0.01         0.01
  YS02001613YS02001616        0.74      0.74      0.78      0.01         0.01
  YS02001616YS02001619        0.73      0.73      0.74      0.01         0.01
  YS02001619YS02001622        0.72      0.73      0.72      0.89         0.70
  YS02001622YS02001625        0.72      0.72      0.91      0.01         0.01
  YS02001625YS02001629        0.65      0.65      0.91      0.01         0.01
  YS02001629YS02163301        0.89      0.89      0.90      0.34         0.32
  YS02001633YS02163601        0.92      0.92      0.95      0.49         0.48
  YS02001641YS02001644        0.78      0.83      0.78      1.56         0.78
  YS02001644YS02001647        0.55      0.55      0.78      0.05         0.01
  YS02001647YS02001649        0.55      0.55      0.66      0.01         0.01
  YS02001649YS02001757        0.65      0.66      0.68      0.39         0.32
  YS02001652YS02001649        0.48      0.48      0.66      0.01         0.01
  YS02001655YS02001652        0.31      0.31      0.46      0.01         0.01
  YS02001658YS02001655        0.19      0.19      0.31      0.01         0.01
  YS02001661YS02001658        0.05      0.05      0.19      0.01         0.01
  YS02001664YS02001661        0.01      0.01      0.09      0.01         0.01
  YS02001745YS02001748        0.01      0.01      0.11      0.01         0.01
  YS02001748YS02001751        0.17      0.17      0.23      0.01         0.01
  YS02001751YS02001754        0.23      0.23      0.33      0.01         0.01
  YS02001754YS02001757        0.37      0.37      0.68      0.01         0.01
  YS02001757CaochengTiaoxuchi        0.50      0.68      1.01      0.46         0.24
  YS02001759YS02001757        0.59      0.59      0.68      0.07         0.08
  YS02001762YS02001759        0.54      0.55      0.59      0.01         0.01
  YS02001765YS02001762        0.51      0.51      0.55      0.01         0.01
  YS02001767YS02001765        0.48      0.48      0.51      0.02         0.05
  YS02001770YS02001767        0.48      0.48      0.48      0.58         0.40
  YS02001774YS02001770        0.46      0.46      0.53      0.01         0.01
  YS02001779YS02001774        0.35      0.35      0.53      0.01         0.01
  YS02001783YS02001784        0.55      0.57      0.55      0.72         0.55
  YS02001784YS02001785        0.44      0.55      0.44      0.97         0.44
  YS02001786YS02001788        0.01      0.44      0.01      0.83         0.01
  YS02001790YS02001791        0.01      0.01      0.01      0.53         0.01
  YS02001793JiankangQianchi        0.01      0.01      7.17      0.01         0.01
  YS02001882YS02001884        0.52      0.52      0.53      0.01         0.01
  YS02001884YS02001887        0.55      0.55      0.56      0.01         0.01
  YS02001887YS02001890        0.58      0.58      0.59      0.14         0.01
  YS02001890YS02001895        0.51      0.51      0.60      0.01         0.01
  YS02001895YS02001898        0.50      0.50      0.51      0.01         0.01
  YS02001898YS02001901        0.51      0.51      0.55      0.01         0.01
  YS02001901YS02001904        0.54      0.54      0.55      0.01         0.01
  YS02001904YS02001907        0.54      0.54      0.81      0.01         0.01
  YS02001907YS02006553        0.99      0.99      1.07      0.01         0.01
  YS02001910YS02001907        0.60      0.60      0.79      0.01         0.01
  YS02001915YS02001910        0.51      0.51      0.60      0.01         0.01
  YS02001918YS02001915        0.43      0.43      0.51      0.01         0.01
  YS02001920YS02001918        0.42      0.43      0.44      0.01         0.01
  YS02001923YS02001920        0.38      0.38      0.44      0.01         0.01
  YS02001926YS02001923        0.13      0.13      0.16      0.01         0.01
  YS02001929YS02001926        0.01      0.01      0.16      0.01         0.01
  YS02006553YS02006556        0.70      0.70      0.81      0.01         0.01
  YS02006556YS02006558        0.75      0.75      0.83      0.01         0.01
  YS02006558YS02006561        0.46      0.69      0.46      0.92         0.46
  YS02006561YS02001783        0.39      0.39      0.57      0.01         0.01
  YS02163301YS02001633        0.90      0.90      0.94      0.01         0.01
  YS02163601YS02164001        0.84      0.84      0.95      0.18         0.01
  YS02164001YS02001641        0.83      0.84      0.83      0.79         0.61
  
  
  ***************
  Pumping Summary
  ***************
  
  ---------------------------------------------------------------------------------------------------------
                                                  Min       Avg       Max     Total     Power    % Time Off
                        Percent   Number of      Flow      Flow      Flow    Volume     Usage    Pump Curve
  Pump                 Utilized   Start-Ups       LPS       LPS       LPS  10^6 ltr     Kw-hr    Low   High
  ---------------------------------------------------------------------------------------------------------
  CC-R1                   23.69          45      0.00    683.00    683.00     4.661     82.18    0.0   46.8
  CC-R2                   26.80          42      0.00    683.00    683.00     5.271     92.64    0.0   53.0
  CC-S1                   27.75          43      0.00    200.00    200.00     1.598      9.90    0.0    0.0
  CC-S2                   14.26           4      0.00    200.00    200.00     0.821      4.74    0.0    0.0
  JK-R1                    1.28           3      0.00   1000.00   1000.00     0.368      4.26    0.0    0.0
  JK-R2                   13.35          49      0.00   1000.00   1000.00     3.844     34.07    0.0    0.0
  JK-S                     1.75           7      0.00    300.00    300.00     0.151      2.35    0.0    0.0
  

  Analysis begun on:  Mon Feb 24 09:46:28 2025
  Analysis ended on:  Mon Feb 24 09:46:30 2025
  Total elapsed time: 00:00:02